test_system_NORDIC_GB_HVDC.m
%%%%%%%%%%%%%%%%%%%%%%%%%%%%%%%%%%%%%%%%%%%%%%%%%%%%%%%%%%%%%%%%%%%%%%%%%%%%%%%%%%%%%%%%%%%
%%%%                                                                  			 	  %%%%%
%%%%    IEEE PES Power Grid Library - Optimal Power Flow with HVDC Lines - v23.09     %%%%%
%%%%          (https://github.com/power-grid-lib/pglib-opf-hvdc)      				  %%%%%
%%%%               Benchmark Group - Typical Operations               				  %%%%%
%%%%                         23 - August - 2023                       				  %%%%%
%%%%                                                                  				  %%%%%
%%%%%%%%%%%%%%%%%%%%%%%%%%%%%%%%%%%%%%%%%%%%%%%%%%%%%%%%%%%%%%%%%%%%%%%%%%%%%%%%%%%%%%%%%%%
%
%   AC/DC grid OPF test case based on:
%   Sass, F., Sennewald, T., Marten, A.-K. and Westermann, D. (2017), 
%   Mixed AC high-voltage direct current benchmark test system for security constrained optimal power flow calculation. 
%   IET Gener. Transm. Distrib., 11: 447-455. https://doi.org/10.1049/iet-gtd.2016.0993
%
%   Copyright (c) 2023 by Hakan Ergun, Vaishally Bhardwaj ({hakan.ergun, vaishally.bhardwaj}@kuleuven.be)
%   Licensed under the Creative Commons Attribution 4.0
%   International license, http://creativecommons.org/licenses/by/4.0/
%

function mpc = case67
mpc.version = '2';
mpc.baseMVA = 100.0;
mpc.baseKG=31034.48;
mpc.frequency1=50;
mpc.frequency2=50;
mpc.rocof1=1;
mpc.rocof2=1;
mpc.deltaf1=1;
mpc.deltaf2=1;

%% CURRENCY NOTE
% Area 1 (bus 1) = Nordic system: all costs are in EUR.
% Area 2 (bus 2) = GB system: generation costs in mpc.gencost are in EUR, converted from GBP
%   using 1 GBP = 54.83/50 EUR = 1.0966 EUR. Reserve prices (mpc.genextra, mpc.bess, mpc.elec
%   ReserveCost columns) are the same value in both areas (in EUR).
% Hydrogen market price (mpc.elec, last column) is in EUR/kg for both areas.
% Electrolyzer StartupCost (mpc.elec) is the same value for both areas.

%After Vm, they are generic values

%% bus data
%	bus_i	type		Pd		Qd		  Gs	 Bs	   area		Vm	   Va		   baseKV	zone	  Vmax			 Vmin
mpc.bus = [
	1	 	2	 		0.0	 	0.0	 	  0.0	 0.0	 1	    1.0	    0	 		380.0	  1	      1.10000	    0.90000;
	2	 	2	 		0.0	    0.0	      0.0	 0.0	 2	    1.0	    0	 		380.0	  1	      1.10000	    0.90000;];



%% generator data
%	bus	   Pg	  Qg		Qmax		 Qmin	  Vg	   mBase	status		Pmax	  Pmin	 Pc1	 Pc2   Qc1min	Qc1max    Qc2min	Qc2max	ramp_agc	    ramp_10	      ramp_30	  ramp_q	   apf         alpha      
mpc.gen = [
	1	0	0	0	0	0	100	1	2042.84 204.282 0 0 0 0 0 0 0 0 0	0	0 0;
1	0	0	0	0	0	100	1	894.69 89.469 0 0 0 0 0 0 0 0 0 0	0	0;
1	0	0	0	0	0	100	1	299.08 29.908 0 0 0 0 0 0 0 0 0 0	0	0;
1	0	0	0	0	0	100	1	1730.37 173.037 0 0 0 0 0 0 0 0 0	0	0 0;
1	0	0	0	0	0	100	1	150.65 15.065 0 0 0 0 0 0 0 0 0 0	0	0;
1	0	0	0	0	0	100	1	383.08 38.308 0 0 0 0 0 0 0 0 0 0	0	0;
1	0	0	0	0	0	100	1	232.33 23.233 0 0 0 0 0 0 0 0 0 0	0	0;
1	0	0	0	0	0	100	1	1031.58 103.158 0 0 0 0 0 0 0 0 0	0	0 0;
1	0	0	0	0	0	100	1	517.79 51.779 0 0 0 0 0 0 0 0 0 0	0	0;
1	0	0	0	0	0	100	1	179.49 17.949 0 0 0 0 0 0 0 0 0 0	0	0;
1	0	0	0	0	0	100	1	828.33 82.833 0 0 0 0 0 0 0 0 0 0	0	0;
1	0	0	0	0	0	100	1	1199.29 119.929 0 0 0 0 0 0 0 0 0	0	0 0;
1	0	0	0	0	0	100	1	1876.63 187.663 0 0 0 0 0 0 0 0 0	0	0 0;
1	0	0	0	0	0	100	1	38.98 3.898 0 0 0 0 0 0 0 0 0 0 0	0	;
1	0	0	0	0	0	100	1	100.12 10.012 0 0 0 0 0 0 0 0 0 0	0	0;
1	0	0	0	0	0	100	1	2654.59 265.459 0 0 0 0 0 0 0 0 0	0	0 0;
1	0	0	0	0	0	100	1	425.64 42.562 0 0 0 0 0 0 0 0 0 0	0	0;
1	0	0	0	0	0	100	1	476.73 47.673 0 0 0 0 0 0 0 0 0 0	0	0;
1	0	0	0	0	0	100	1	150.08 15.008 0 0 0 0 0 0 0 0 0 0	0	0;
1	0	0	0	0	0	100	1	1004.57 100.457 0 0 0 0 0 0 0 0 0	0	0 0;
1	0	0	0	0	0	100	1	3355.43 335.543 0 0 0 0 0 0 0 0 0	0	0 0;
1	0	0	0	0	0	100	1	858.02 85.802 0 0 0 0 0 0 0 0 0 0	0	0;
1	0	0	0	0	0	100	1	2358.23 235.823 0 0 0 0 0 0 0 0 0	0	0 0;
1	0	0	0	0	0	100	1	2076.75 207.675 0 0 0 0 0 0 0 0 0	0	0 0;
1	0	0	0	0	0	100	1	774.52 77.452 0 0 0 0 0 0 0 0 0 0	0	0;
1	0	0	0	0	0	100	1	4476.97 447.697 0 0 0 0 0 0 0 0 0	0	0 0;
1	0	0	0	0	0	100	1	690.11 69.011 0 0 0 0 0 0 0 0 0 0	0	0;
1	0	0	0	0	0	100	1	750.68 75.068 0 0 0 0 0 0 0 0 0 0	0	0;
1	0	0	0	0	0	100	1	1270.15 127.015 0 0 0 0 0 0 0 0 0	0	0 0;
1	0	0	0	0	0	100	1	2400.57 240.057 0 0 0 0 0 0 0 0 0	0	0 0;
1	0	0	0	0	0	100	1	1025.76 102.576 0 0 0 0 0 0 0 0 0	0	0 0;
1	0	0	0	0	0	100	1	4418.24 441.822 0 0 0 0 0 0 0 0 0	0	0 0;
1	0	0	0	0	0	100	1	655.60 65.560 0 0 0 0 0 0 0 0 0 0	0	0;
1	0	0	0	0	0	100	1	782.18 78.218 0 0 0 0 0 0 0 0 0 0	0	0;
1	0	0	0	0	0	100	1	3417.36 341.736 0 0 0 0 0 0 0 0 0	0	0 0;
1	0	0	0	0	0	100	1	3219.97 321.997 0 0 0 0 0 0 0 0 0	0	0 0;
1	0	0	0	0	0	100	1	1728.26 172.826 0 0 0 0 0 0 0 0 0	0	0 0;
1	0	0	0	0	0	100	1	121.84 12.182 0 0 0 0 0 0 0 0 0 0	0	0;
1	0	0	0	0	0	100	1	375.38 37.538 0 0 0 0 0 0 0 0 0 0	0	0;
1	0	0	0	0	0	100	1	275.42 27.542 0 0 0 0 0 0 0 0 0 0	0	0;
1	0	0	0	0	0	100	1	52.08 5.208 0 0 0 0 0 0 0 0 0 0 0	0	;
1	0	0	0	0	0	100	1	30.01 3.001 0 0 0 0 0 0 0 0 0 0 0	0	;
1	0	0	0	0	0	100	1	21.13 2.113 0 0 0 0 0 0 0 0 0 0 0	0	;
1	0	0	0	0	0	100	1	323.87 32.387 0 0 0 0 0 0 0 0 0 0	0	0;
1	0	0	0	0	0	100	1	35.89 3.589 0 0 0 0 0 0 0 0 0 0 0	0	;
1	0	0	0	0	0	100	1	861.44 86.142 0 0 0 0 0 0 0 0 0 0	0	0;
1	0	0	0	0	0	100	1	96.00 9.6 0 0 0 0 0 0 0 0 0 0 0 0	;	
1	0	0	0	0	0	100	1	322.74 32.272 0 0 0 0 0 0 0 0 0 0	0	0;
1	0	0	0	0	0	100	1	53.26 5.326 0 0 0 0 0 0 0 0 0 0 0	0	;
1	0	0	0	0	0	100	1	501 50.1 0 0 0 0 0 0 0 0 0 0 0 0;		
1	0	0	0	0	0	100	1	501 50.1 0 0 0 0 0 0 0 0 0 0 0 0;		
1	0	0	0	0	0	100	1	888 88.8 0 0 0 0 0 0 0 0 0 0 0 0;		
1	0	0	0	0	0	100	1	888 88.8 0 0 0 0 0 0 0 0 0 0 0 0;		
1	0	0	0	0	0	100	1	1615 161.5 0 0 0 0 0 0 0 0 0 0 0	0;	
1	0	0	0	0	0	100	1	1119 111.9 0 0 0 0 0 0 0 0 0 0 0	0;	
1	0	0	0	0	0	100	1	1166 116.6 0 0 0 0 0 0 0 0 0 0 0	0;	
1	0	0	0	0	0	100	1	1064 106.2 0 0 0 0 0 0 0 0 0 0 0	0;	
1	0	0	0	0	0	100	1	1105 110.5 0 0 0 0 0 0 0 0 0 0 0	0;	
1	0	0	0	0	0	100	1	1398 139.8 0 0 0 0 0 0 0 0 0 0 0	0;	
1	0	0	0	0	0	100	1	1127 112.7 0 0 0 0 0 0 0 0 0 0 0	0;	
1	0	0	0	0	0	100	1	1127 112.7 0 0 0 0 0 0 0 0 0 0 0	0;	
1	0	0	0	0	0	100	1	1127 112.7 0 0 0 0 0 0 0 0 0 0 0	0;	
1	0	0	0	0	0	100	1	1127 112.7 0 0 0 0 0 0 0 0 0 0 0	0;	
1	0	0	0	0	0	100	1	1127 112.7 0 0 0 0 0 0 0 0 0 0 0	0;	
1	0	0	0	0	0	100	1	1127 112.7 0 0 0 0 0 0 0 0 0 0 0	0;	
1	0	0	0	0	0	100	1	1127 112.7 0 0 0 0 0 0 0 0 0 0 0	0;	
1	0	0	0	0	0	100	1	1127 112.7 0 0 0 0 0 0 0 0 0 0 0	0;	
1	0	0	0	0	0	100	1	1127 112.7 0 0 0 0 0 0 0 0 0 0 0	0;	
1	0	0	0	0	0	100	1	1127 112.7 0 0 0 0 0 0 0 0 0 0 0	0;	
1	0	0	0	0	0	100	1	1127 112.7 0 0 0 0 0 0 0 0 0 0 0	0;	
1	0	0	0	0	0	100	1	81 8.1 0 0 0 0 0 0 0 0 0 0 0 0;		
1	0	0	0	0	0	100	1	54 5.2 0 0 0 0 0 0 0 0 0 0 0 0;		
1	0	0	0	0	0	100	1	106 10.6 0 0 0 0 0 0 0 0 0 0 0 0;		
1	0	0	0	0	0	100	1	66 6.6 0 0 0 0 0 0 0 0 0 0 0 0;		
1	0	0	0	0	0	100	1	53 5.3 0 0 0 0 0 0 0 0 0 0 0 0;		
1	0	0	0	0	0	100	1	422 42.2 0 0 0 0 0 0 0 0 0 0 0 0;		
1	0	0	0	0	0	100	1	464 46.2 0 0 0 0 0 0 0 0 0 0 0 0;		
1	0	0	0	0	0	100	1	1157 115.7 0 0 0 0 0 0 0 0 0 0 0	0;	
1	0	0	0	0	0	100	1	1569 156.9 0 0 0 0 0 0 0 0 0 0 0	0;	
1	0	0	0	0	0	100	1	9 0.9 0 0 0 0 0 0 0 0 0 0 0 0;		
1	0	0	0	0	0	100	1	11 1.1 0 0 0 0 0 0 0 0 0 0 0 0;		
1	0	0	0	0	0	100	1	195 19.5 0 0 0 0 0 0 0 0 0 0 0 0;		
1	0	0	0	0	0	100	1	54 5.2 0 0 0 0 0 0 0 0 0 0 0 0;		
1	0	0	0	0	0	100	1	57 5.7 0 0 0 0 0 0 0 0 0 0 0 0;		
1	0	0	0	0	0	100	1	31 3.1 0 0 0 0 0 0 0 0 0 0 0 0;		
1	0	0	0	0	0	100	1	143 14.3 0 0 0 0 0 0 0 0 0 0 0 0;		
1	0	0	0	0	0	100	1	68 6.8 0 0 0 0 0 0 0 0 0 0 0 0;		
1	0	0	0	0	0	100	1	133 13.3 0 0 0 0 0 0 0 0 0 0 0 0;		
1	0	0	0	0	0	100	1	238 23.8 0 0 0 0 0 0 0 0 0 0 0 0;		
1	0	0	0	0	0	100	1	523 52.3 0 0 0 0 0 0 0 0 0 0 0 0;		
1	0	0	0	0	0	100	1	55 5.5 0 0 0 0 0 0 0 0 0 0 0 0;		
1	0	0	0	0	0	100	1	55 5.5 0 0 0 0 0 0 0 0 0 0 0 0;		
1	0	0	0	0	0	100	1	351 35.1 0 0 0 0 0 0 0 0 0 0 0 0;		
1	0	0	0	0	0	100	1	220 22.0 0 0 0 0 0 0 0 0 0 0 0 0;		
1	0	0	0	0	0	100	1	138 13.8 0 0 0 0 0 0 0 0 0 0 0 0;		
1	0	0	0	0	0	100	1	133 13.3 0 0 0 0 0 0 0 0 0 0 0 0;		
1	0	0	0	0	0	100	1	131 13.1 0 0 0 0 0 0 0 0 0 0 0 0;		
1	0	0	0	0	0	100	1	115 11.5 0 0 0 0 0 0 0 0 0 0 0 0;		
1	0	0	0	0	0	100	1	110 11.0 0 0 0 0 0 0 0 0 0 0 0 0;		
1	0	0	0	0	0	100	1	110 11.0 0 0 0 0 0 0 0 0 0 0 0 0;		
1	0	0	0	0	0	100	1	98 9.8 0 0 0 0 0 0 0 0 0 0 0 0;		
1	0	0	0	0	0	100	1	518 51.8 0 0 0 0 0 0 0 0 0 0 0 0;		
1	0	0	0	0	0	100	1	299 29.9 0 0 0 0 0 0 0 0 0 0 0 0;		
1	0	0	0	0	0	100	1	298 29.8 0 0 0 0 0 0 0 0 0 0 0 0;		
1	0	0	0	0	0	100	1	174 17.2 0 0 0 0 0 0 0 0 0 0 0 0;		
1	0	0	0	0	0	100	1	170 17.0 0 0 0 0 0 0 0 0 0 0 0 0;		
1	0	0	0	0	0	100	1	165 16.5 0 0 0 0 0 0 0 0 0 0 0 0;		
1	0	0	0	0	0	100	1	153 15.3 0 0 0 0 0 0 0 0 0 0 0 0;		
1	0	0	0	0	0	100	1	147 14.7 0 0 0 0 0 0 0 0 0 0 0 0;		
1	0	0	0	0	0	100	1	142 14.2 0 0 0 0 0 0 0 0 0 0 0 0;		
1	0	0	0	0	0	100	1	117 11.7 0 0 0 0 0 0 0 0 0 0 0 0;		
1	0	0	0	0	0	100	1	115 11.5 0 0 0 0 0 0 0 0 0 0 0 0;		
1	0	0	0	0	0	100	1	115 11.5 0 0 0 0 0 0 0 0 0 0 0 0;		
1	0	0	0	0	0	100	1	92 9.2 0 0 0 0 0 0 0 0 0 0 0 0;		
1	0	0	0	0	0	100	1	50 5.0 0 0 0 0 0 0 0 0 0 0 0 0;		
1	0	0	0	0	0	100	1	300 30.0 0 0 0 0 0 0 0 0 0 0 0 0;		
1	0	0	0	0	0	100	1	434 43.2 0 0 0 0 0 0 0 0 0 0 0 0;		
1	0	0	0	0	0	100	1	334 33.2 0 0 0 0 0 0 0 0 0 0 0 0;		
1	0	0	0	0	0	100	1	499 49.9 0 0 0 0 0 0 0 0 0 0 0 0;		
1	0	0	0	0	0	100	1	499 49.9 0 0 0 0 0 0 0 0 0 0 0 0;		
1	0	0	0	0	0	100	1	845 84.5 0 0 0 0 0 0 0 0 0 0 0 0;		
1	0	0	0	0	0	100	1	470 47.0 0 0 0 0 0 0 0 0 0 0 0 0;		
1	0	0	0	0	0	100	1	230 23.0 0 0 0 0 0 0 0 0 0 0 0 0;		
1	0	0	0	0	0	100	1	192 19.2 0 0 0 0 0 0 0 0 0 0 0 0;		
1	0	0	0	0	0	100	1	368 36.8 0 0 0 0 0 0 0 0 0 0 0 0;		
1	0	0	0	0	0	100	1	246 24.6 0 0 0 0 0 0 0 0 0 0 0 0;		
1	0	0	0	0	0	100	1	137 13.7 0 0 0 0 0 0 0 0 0 0 0 0;		
1	0	0	0	0	0	100	1	71 7.1 0 0 0 0 0 0 0 0 0 0 0 0;		
1	0	0	0	0	0	100	1	593 59.3 0 0 0 0 0 0 0 0 0 0 0 0;		
1	0	0	0	0	0	100	1	181.9437919 0 0 0 0 0 0 0 0 0 0 0	0	0 ;
1	0	0	0	0	0	100	1	34.87855299 0 0 0 0 0 0 0 0 0 0 0	0	0 ;
1	0	0	0	0	0	100	1	61.48693363 0 0 0 0 0 0 0 0 0 0 0	0	0 ;
1	0	0	0	0	0	100	1	61.12736092 0 0 0 0 0 0 0 0 0 0 0	0	0 ;
1	0	0	0	0	0	100	1	37.39556197 0 0 0 0 0 0 0 0 0 0 0	0	0 ;
1	0	0	0	0	0	100	1	42.07000722 0 0 0 0 0 0 0 0 0 0 0	0	0 ;
1	0	0	0	0	0	100	1	123.6930127 0 0 0 0 0 0 0 0 0 0 0	0	0 ;
1	0	0	0	0	0	100	1	53.57633398 0 0 0 0 0 0 0 0 0 0 0	0	0 ;
1	0	0	0	0	0	100	1	76.5889875 0 0 0 0 0 0 0 0 0 0 0	0	0 ;
1	0	0	0	0	0	100	1	119.7377129 0 0 0 0 0 0 0 0 0 0 0	0	0 ;
1	0	0	0	0	0	100	1	21.57436268 0 0 0 0 0 0 0 0 0 0 0	0	0 ;
1	0	0	0	0	0	100	1	38.47428011 0 0 0 0 0 0 0 0 0 0 0	0	0 ;
1	0	0	0	0	0	100	1	104.2760863 0 0 0 0 0 0 0 0 0 0 0	0	0 ;
1	0	0	0	0	0	100	1	110.3888222 0 0 0 0 0 0 0 0 0 0 0	0	0 ;
1	0	0	0	0	0	100	1	105.3548042 0 0 0 0 0 0 0 0 0 0 0	0	0 ;
1	0	0	0	0	0	100	1	135.5589121 0 0 0 0 0 0 0 0 0 0 0	0	0 ;
1	0	0	0	0	0	100	1	3.595727113 0 0 0 0 0 0 0 0 0 0 0	0	0 ;
1	0	0	0	0	0	100	1	68.31881512 0 0 0 0 0 0 0 0 0 0 0	0	0 ;
1	0	0	0	0	0	100	1	67.95924243 0 0 0 0 0 0 0 0 0 0 0	0	0 ;
1	0	0	0	0	0	100	1	71.91454225 0 0 0 0 0 0 0 0 0 0 0	0	0 ;
1	0	0	0	0	0	100	1	68.31881512 0 0 0 0 0 0 0 0 0 0 0	0	0 ;
1	0	0	0	0	0	100	1	141.6716482 0 0 0 0 0 0 0 0 0 0 0	0	0 ;
1	0	0	0	0	0	100	1	56.81248838 0 0 0 0 0 0 0 0 0 0 0	0	0 ;
1	0	0	0	0	0	100	1	16.54034472 0 0 0 0 0 0 0 0 0 0 0	0	0 ;
1	0	0	0	0	0	100	1	65.80180616 0 0 0 0 0 0 0 0 0 0 0	0	0 ;
1	0	0	0	0	0	100	1	121.8951491 0 0 0 0 0 0 0 0 0 0 0	0	0 ;
1	0	0	0	0	0	100	1	50.34017958 0 0 0 0 0 0 0 0 0 0 0	0	0 ;
1	0	0	0	0	0	100	1	25.5296625 0 0 0 0 0 0 0 0 0 0 0	0	0 ;
1	0	0	0	0	0	100	1	89.89317782 0 0 0 0 0 0 0 0 0 0 0	0	0 ;
1	0	0	0	0	0	100	1	24.81051708 0 0 0 0 0 0 0 0 0 0 0	0	0 ;
1	0	0	0	0	0	100	1	65.44223345 0 0 0 0 0 0 0 0 0 0 0	0	0 ;
1	0	0	0	0	0	100	1	69.75710599 0 0 0 0 0 0 0 0 0 0 0	0	0 ;
1	0	0	0	0	0	100	1	62.56565176 0 0 0 0 0 0 0 0 0 0 0	0	0 ;
1	0	0	0	0	0	100	1	42.42957993 0 0 0 0 0 0 0 0 0 0 0	0	0 ;
1	0	0	0	0	0	100	1	122.2547218 0 0 0 0 0 0 0 0 0 0 0	0	0 ;
1	0	0	0	0	0	100	1	83.78044173 0 0 0 0 0 0 0 0 0 0 0	0	0 ;
1	0	0	0	0	0	100	1	99.96121373 0 0 0 0 0 0 0 0 0 0 0	0	0 ;
1	0	0	0	0	0	100	1	28.40624419 0 0 0 0 0 0 0 0 0 0 0	0	0 ;
1	0	0	0	0	0	100	1	117.2207039 0 0 0 0 0 0 0 0 0 0 0	0	0 ;
1	0	0	0	0	0	100	1	14.74248116 0 0 0 0 0 0 0 0 0 0 0	0	0 ;
1	0	0	0	0	0	100	1	95.28676849 0 0 0 0 0 0 0 0 0 0 0	0	0 ;
1	0	0	0	0	0	100	1	107.152668 0 0 0 0 0 0 0 0 0 0 0	0	0 ;
1	0	0	0	0	0	100	1	60.04864278 0 0 0 0 0 0 0 0 0 0 0	0	0 ;
1	0	0	0	0	0	100	1	89.53360511 0 0 0 0 0 0 0 0 0 0 0	0	0 ;
1	0	0	0	0	0	100	1	101.0399319 0 0 0 0 0 0 0 0 0 0 0	0	0 ;
1	0	0	0	0	0	100	1	193.8096912 0 0 0 0 0 0 0 0 0 0 0	0	0 ;
1	0	0	0	0	0	100	1	115.4228403 0 0 0 0 0 0 0 0 0 0 0	0	0 ;
1	0	0	0	0	0	100	1	72.99326039 0 0 0 0 0 0 0 0 0 0 0	0	0 ;
1	0	0	0	0	0	100	1	211.0691815 0 0 0 0 0 0 0 0 0 0 0	0	0 ;
1	0	0	0	0	0	100	1	101.3995046 0 0 0 0 0 0 0 0 0 0 0	0	0 ;
1	0	0	0	0	0	100	1	37.03598926 0 0 0 0 0 0 0 0 0 0 0	0	0 ;
1	0	0	0	0	0	100	1	22.2935081 0 0 0 0 0 0 0 0 0 0 0	0	0 ;
1	0	0	0	0	0	100	1	35.2381257 0 0 0 0 0 0 0 0 0 0 0	0	0 ;
1	0	0	0	0	0	100	1	53.93590669 0 0 0 0 0 0 0 0 0 0 0	0	0 ;
1	0	0	0	0	0	100	1	35.95727113 0 0 0 0 0 0 0 0 0 0 0	0	0 ;
1	0	0	0	0	0	100	1	134.1206213 0 0 0 0 0 0 0 0 0 0 0	0	0 ;
1	0	0	0	0	0	100	1	187.6969553 0 0 0 0 0 0 0 0 0 0 0	0	0 ;
1	0	0	0	0	0	100	1	45.30616162 0 0 0 0 0 0 0 0 0 0 0	0	0 ;
1	0	0	0	0	0	100	1	24.81051708 0 0 0 0 0 0 0 0 0 0 0	0	0 ;
1	0	0	0	0	0	100	1	222.2159356 0 0 0 0 0 0 0 0 0 0 0	0	0 ;
1	0	0	0	0	0	100	1	110.0292496 0 0 0 0 0 0 0 0 0 0 0	0	0 ;
1	0	0	0	0	0	100	1	74.43155123 0 0 0 0 0 0 0 0 0 0 0	0	0 ;
1	0	0	0	0	0	100	1	60.04864278 0 0 0 0 0 0 0 0 0 0 0	0	0 ;
1	0	0	0	0	0	100	1	48.90188873 0 0 0 0 0 0 0 0 0 0 0	0	0 ;
1	0	0	0	0	0	100	1	43.86787077 0 0 0 0 0 0 0 0 0 0 0	0	0 ;
1	0	0	0	0	0	100	1	108.9505315 0 0 0 0 0 0 0 0 0 0 0	0	0 ;
1	0	0	0	0	0	100	1	37.03598926 0 0 0 0 0 0 0 0 0 0 0	0	0 ;
1	0	0	0	0	0	100	1	77.30813292 0 0 0 0 0 0 0 0 0 0 0	0	0 ;
1	0	0	0	0	0	100	1	270.3986789 0 0 0 0 0 0 0 0 0 0 0	0	0 ;
1	0	0	0	0	0	100	1	104.9952317 0 0 0 0 0 0 0 0 0 0 0	0	0 ;
1	0	0	0	0	0	100	1	139.8737847 0 0 0 0 0 0 0 0 0 0 0	0	0 ;
...
										
1	0	0	0	0	0	100	1	29.26912473 0 0 0 0 0 0 0 0 0 0 0	0	0 ;
1	0	0	0	0	0	100	1	439.7175482 0 0 0 0 0 0 0 0 0 0 0	0	0 ;
1	0	0	0	0	0	100	1	617.9286131 0 0 0 0 0 0 0 0 0 0 0	0	0 ;
1	0	0	0	0	0	100	1	340.3386596 0 0 0 0 0 0 0 0 0 0 0	0	0 ;
1	0	0	0	0	0	100	1	1235.449083 0 0 0 0 0 0 0 0 0 0 0	0	0 ;
1	0	0	0	0	0	100	1	108.9083711 0 0 0 0 0 0 0 0 0 0 0	0	0 ;
1	0	0	0	0	0	100	1	450.6083853 0 0 0 0 0 0 0 0 0 0 0	0	0 ;
1	0	0	0	0	0	100	1	589.8068971 0 0 0 0 0 0 0 0 0 0 0	0	0 ;
1	0	0	0	0	0	100	1	735.2129035 0 0 0 0 0 0 0 0 0 0 0	0	0 ;
1	0	0	0	0	0	100	1	1393.215582 0 0 0 0 0 0 0 0 0 0 0	0	0 ;
1	0	0	0	0	0	100	1	281.5381597 0 0 0 0 0 0 0 0 0 0 0	0	0 ;
1	0	0	0	0	0	100	1	228.0459092 0 0 0 0 0 0 0 0 0 0 0	0	0 ;
1	0	0	0	0	0	100	1	853.0606239 0 0 0 0 0 0 0 0 0 0 0	0	0 ;
1	0	0	0	0	0	100	1	180.5869999 0 0 0 0 0 0 0 0 0 0 0	0	0 ;
1	0	0	0	0	0	100	1	7.622267299 0 0 0 0 0 0 0 0 0 0 0	0	0 ;
1	0	0	0	0	0	100	1	167.2101851 0 0 0 0 0 0 0 0 0 0 0	0	0 ;
1	0	0	0	0	0	100	1	40.06338056 0 0 0 0 0 0 0 0 0 0 0	0	0 ;
1	0	0	0	0	0	100	1	16.63885179 0 0 0 0 0 0 0 0 0 0 0	0	0 ;
1	0	0	0	0	0	100	1	10.96862855 0 0 0 0 0 0 0 0 0 0 0	0	0 ;
1	0	0	0	0	0	100	1	2.881588857 0 0 0 0 0 0 0 0 0 0 0	0	0 ;
1	0	0	0	0	0	100	1	12.73476366 0 0 0 0 0 0 0 0 0 0 0	0	0 ;
1	0	0	0	0	0	100	1	5.112496359 0 0 0 0 0 0 0 0 0 0 0	0	0 ;
1	0	0	0	0	0	100	1	14.12908085 0 0 0 0 0 0 0 0 0 0 0	0	0 ;
1	0	0	0	0	0	100	1	208.4553641 0 0 0 0 0 0 0 0 0 0 0	0	0 ;
1	0	0	0	0	0	100	1	12.17703678 0 0 0 0 0 0 0 0 0 0 0	0	0 ;
1	0	0	0	0	0	100	1	1.394317189 0 0 0 0 0 0 0 0 0 0 0	0	0 ;
1	0	0	0	0	0	100	1	56.88814131 0 0 0 0 0 0 0 0 0 0 0	0	0 ;
1	0	0	0	0	0	100	1	129.3092098 0 0 0 0 0 0 0 0 0 0 0	0	0 ;
1	0	0	0	0	0	100	1	2.137953023 0 0 0 0 0 0 0 0 0 0 0	0	0 ;
1	0	0	0	0	0	100	1	1.580226147 0 0 0 0 0 0 0 0 0 0 0	0	0 ;
1	0	0	0	0	0	100	1	17.38248762 0 0 0 0 0 0 0 0 0 0 0	0	0 ;
1	0	0	0	0	0	100	1	4.089997087 0 0 0 0 0 0 0 0 0 0 0	0	0 ;
1	0	0	0	0	0	100	1	44.33928661 0 0 0 0 0 0 0 0 0 0 0	0	0 ;
1	0	0	0	0	0	100	1	8.087039695 0 0 0 0 0 0 0 0 0 0 0	0	0 ;
1	0	0	0	0	0	100	1	30.67497815 0 0 0 0 0 0 0 0 0 0 0	0	0 ;
1	0	0	0	0	0	100	1	32.44111326 0 0 0 0 0 0 0 0 0 0 0	0	0 ;
1	0	0	0	0	0	100	1	1.487271668 0 0 0 0 0 0 0 0 0 0 0	0	0 ;
1	0	0	0	0	0	100	1	5.856132193 0 0 0 0 0 0 0 0 0 0 0	0	0 ;
1	0	0	0	0	0	100	1	3.625224691 0 0 0 0 0 0 0 0 0 0 0	0	0 ;
1	0	0	0	0	0	100	1	39.01570986 0 0 0 0 0 0 0 0 0 0 0	0	0 ;
1	0	0	0	0	0	100	1	20.06522221 0 0 0 0 0 0 0 0 0 0 0	0	0 ;
1	0	0	0	0	0	100	1	71.66790351 0 0 0 0 0 0 0 0 0 0 0	0	0 ;
1	0	0	0	0	0	100	1	4.275906046 0 0 0 0 0 0 0 0 0 0 0	0	0 ;
1	0	0	0	0	0	100	1	3308.862362 0 0 0 0 0 0 0 0 0 0 0	0	0 ;
1	0	0	0	0	0	100	1	4212.514715 0 0 0 0 0 0 0 0 0 0 0	0	0 ;
1	0	0	0	0	0	100	1	1551.383107 0 0 0 0 0 0 0 0 0 0 0	0	0 ;
1	0	0	0	0	0	100	1	1839.0118 0 0 0 0 0 0 0 0 0 0 0 0	0	;
1	0	0	0	0	0	100	1	2615.83575 0 0 0 0 0 0 0 0 0 0 0	0	0 ;
1	0	0	0	0	0	100	1	3884.11975 0 0 0 0 0 0 0 0 0 0 0	0	0 ;
1	0	0	0	0	0	100	1	2778.063712 0 0 0 0 0 0 0 0 0 0 0	0	0 ;
1	0	0	0	0	0	100	1	394.8713459 0 0 0 0 0 0 0 0 0 0 0	0	0 ;
1	0	0	0	0	0	100	1	2372.479841 0 0 0 0 0 0 0 0 0 0 0	0	0 ;
1	0	0	0	0	0	100	1	1519.785217 0 0 0 0 0 0 0 0 0 0 0	0	0 ;
1	0	0	0	0	0	100	1	675.6915833 0 0 0 0 0 0 0 0 0 0 0	0	0 ;
1	0	0	0	0	0	100	1	3376.410366 0 0 0 0 0 0 0 0 0 0 0	0	0 ;
1	0	0	0	0	0	100	1	1266.153887 0 0 0 0 0 0 0 0 0 0 0	0	0 ;
1	0	0	0	0	0	100	1	1904.682842 0 0 0 0 0 0 0 0 0 0 0	0	0 ;
1	0	0	0	0	0	100	1	2669.16216 0 0 0 0 0 0 0 0 0 0 0	0	0 ;
1	0	0	0	0	0	100	1	1107.626283 0 0 0 0 0 0 0 0 0 0 0	0	0 ;
1	0	0	0	0	0	100	1	1205.358012 0 0 0 0 0 0 0 0 0 0 0	0	0 ;
1	0	0	0	0	0	100	1	3687.743978 0 0 0 0 0 0 0 0 0 0 0	0	0 ;
1	0	0	0	0	0	100	1	285.1876322 0 0 0 0 0 0 0 0 0 0 0	0	0 ;
1	0	0	0	0	0	100	1	445.9982792 0 0 0 0 0 0 0 0 0 0 0	0	0 ;
1	0	0	0	0	0	100	1	388.2069531 0 0 0 0 0 0 0 0 0 0 0	0	0 ;
1	0	0	0	0	0	100	1	589.2202621 0 0 0 0 0 0 0 0 0 0 0	0	0 ;
1	0	0	0	0	0	100	1	322.8776276 0 0 0 0 0 0 0 0 0 0 0	0	0 ;
1	0	0	0	0	0	100	1	2834.287657 0 0 0 0 0 0 0 0 0 0 0	0	0 ;
1	0	0	0	0	0	100	1	579.1695967 0 0 0 0 0 0 0 0 0 0 0	0	0 ;
1	0	0	0	0	0	100	1	165.7905507 0 0 0 0 0 0 0 0 0 0 0	0	0 ;
1	0	0	0	0	0	100	1	437.9633715 0 0 0 0 0 0 0 0 0 0 0	0	0 ;
1	0	0	0	0	0	100	1	1073.493816 0 0 0 0 0 0 0 0 0 0 0	0	0 ;
1	0	0	0	0	0	100	1	596.8459826 0 0 0 0 0 0 0 0 0 0 0	0	0 ;
1	0	0	0	0	0	100	1	117.4349732 0 0 0 0 0 0 0 0 0 0 0	0	0 ;
1	0	0	0	0	0	100	1	737.7679508 0 0 0 0 0 0 0 0 0 0 0	0	0 ;

2 0 0 0 0 0 100 1 500 250 0 0 0 0 0 0 0 0 0 0 0 0;
2 0 0 0 0 0 100 1 500 250 0 0 0 0 0 0 0 0 0 0 0 0;
2 0 0 0 0 0 100 1 500 250 0 0 0 0 0 0 0 0 0 0 0 0;
2 0 0 0 0 0 100 1 500 250 0 0 0 0 0 0 0 0 0 0 0 0;
2 0 0 0 0 0 100 1 500 250 0 0 0 0 0 0 0 0 0 0 0 0;
2 0 0 0 0 0 100 1 500 250 0 0 0 0 0 0 0 0 0 0 0 0;
2 0 0 0 0 0 100 1 500 250 0 0 0 0 0 0 0 0 0 0 0 0;
2 0 0 0 0 0 100 1 500 250 0 0 0 0 0 0 0 0 0 0 0 0;
2 0 0 0 0 0 100 1 500 250 0 0 0 0 0 0 0 0 0 0 0 0;
2 0 0 0 0 0 100 1 500 250 0 0 0 0 0 0 0 0 0 0 0 0;
2 0 0 0 0 0 100 1 500 250 0 0 0 0 0 0 0 0 0 0 0 0;
2 0 0 0 0 0 100 1 500 250 0 0 0 0 0 0 0 0 0 0 0 0;
2 0 0 0 0 0 100 1 500 250 0 0 0 0 0 0 0 0 0 0 0 0;
2 0 0 0 0 0 100 1 500 250 0 0 0 0 0 0 0 0 0 0 0 0;
2 0 0 0 0 0 100 1 500 250 0 0 0 0 0 0 0 0 0 0 0 0;
2 0 0 0 0 0 100 1 500 250 0 0 0 0 0 0 0 0 0 0 0 0;
2 0 0 0 0 0 100 1 500 250 0 0 0 0 0 0 0 0 0 0 0 0;
2 0 0 0 0 0 100 1 500 250 0 0 0 0 0 0 0 0 0 0 0 0;
2 0 0 0 0 0 100 1 500 250 0 0 0 0 0 0 0 0 0 0 0 0;
2 0 0 0 0 0 100 1 500 250 0 0 0 0 0 0 0 0 0 0 0 0;
2 0 0 0 0 0 100 1 500 250 0 0 0 0 0 0 0 0 0 0 0 0;
2 0 0 0 0 0 100 1 500 250 0 0 0 0 0 0 0 0 0 0 0 0;
2 0 0 0 0 0 100 1 500 250 0 0 0 0 0 0 0 0 0 0 0 0;
2 0 0 0 0 0 100 1 500 250 0 0 0 0 0 0 0 0 0 0 0 0;
2 0 0 0 0 0 100 1 500 250 0 0 0 0 0 0 0 0 0 0 0 0;
2 0 0 0 0 0 100 1 500 250 0 0 0 0 0 0 0 0 0 0 0 0;
2 0 0 0 0 0 100 1 500 250 0 0 0 0 0 0 0 0 0 0 0 0;
2 0 0 0 0 0 100 1 500 250 0 0 0 0 0 0 0 0 0 0 0 0;
2 0 0 0 0 0 100 1 500 250 0 0 0 0 0 0 0 0 0 0 0 0;
2 0 0 0 0 0 100 1 500 250 0 0 0 0 0 0 0 0 0 0 0 0;
2 0 0 0 0 0 100 1 500 250 0 0 0 0 0 0 0 0 0 0 0 0;
2 0 0 0 0 0 100 1 500 250 0 0 0 0 0 0 0 0 0 0 0 0;
2 0 0 0 0 0 100 1 500 250 0 0 0 0 0 0 0 0 0 0 0 0;
2 0 0 0 0 0 100 1 500 250 0 0 0 0 0 0 0 0 0 0 0 0;
2 0 0 0 0 0 100 1 500 250 0 0 0 0 0 0 0 0 0 0 0 0;
2 0 0 0 0 0 100 1 500 250 0 0 0 0 0 0 0 0 0 0 0 0;
2 0 0 0 0 0 100 1 500 250 0 0 0 0 0 0 0 0 0 0 0 0;
2 0 0 0 0 0 100 1 500 250 0 0 0 0 0 0 0 0 0 0 0 0;
2 0 0 0 0 0 100 1 500 250 0 0 0 0 0 0 0 0 0 0 0 0;
2 0 0 0 0 0 100 1 500 250 0 0 0 0 0 0 0 0 0 0 0 0;
2 0 0 0 0 0 100 1 500 250 0 0 0 0 0 0 0 0 0 0 0 0;
2 0 0 0 0 0 100 1 500 250 0 0 0 0 0 0 0 0 0 0 0 0;
2 0 0 0 0 0 100 1 500 250 0 0 0 0 0 0 0 0 0 0 0 0;
2 0 0 0 0 0 100 1 500 250 0 0 0 0 0 0 0 0 0 0 0 0;
2 0 0 0 0 0 100 1 500 250 0 0 0 0 0 0 0 0 0 0 0 0;
2 0 0 0 0 0 100 1 500 250 0 0 0 0 0 0 0 0 0 0 0 0;
2 0 0 0 0 0 100 1 500 250 0 0 0 0 0 0 0 0 0 0 0 0;
2 0 0 0 0 0 100 1 500 250 0 0 0 0 0 0 0 0 0 0 0 0;
2 0 0 0 0 0 100 1 500 250 0 0 0 0 0 0 0 0 0 0 0 0;
2 0 0 0 0 0 100 1 500 250 0 0 0 0 0 0 0 0 0 0 0 0;
2 0 0 0 0 0 100 1 500 250 0 0 0 0 0 0 0 0 0 0 0 0;
2 0 0 0 0 0 100 1 500 250 0 0 0 0 0 0 0 0 0 0 0 0;
2 0 0 0 0 0 100 1 500 250 0 0 0 0 0 0 0 0 0 0 0 0;
2 0 0 0 0 0 100 1 500 250 0 0 0 0 0 0 0 0 0 0 0 0;
2 0 0 0 0 0 100 1 500 250 0 0 0 0 0 0 0 0 0 0 0 0;
2 0 0 0 0 0 100 1 500 250 0 0 0 0 0 0 0 0 0 0 0 0;
2 0 0 0 0 0 100 1 500 250 0 0 0 0 0 0 0 0 0 0 0 0;
2 0 0 0 0 0 100 1 500 250 0 0 0 0 0 0 0 0 0 0 0 0;
2 0 0 0 0 0 100 1 500 250 0 0 0 0 0 0 0 0 0 0 0 0;
2 0 0 0 0 0 100 1 500 250 0 0 0 0 0 0 0 0 0 0 0 0;
2 0 0 0 0 0 100 1 500 250 0 0 0 0 0 0 0 0 0 0 0 0;
2 0 0 0 0 0 100 1 500 250 0 0 0 0 0 0 0 0 0 0 0 0;
2 0 0 0 0 0 100 1 500 250 0 0 0 0 0 0 0 0 0 0 0 0;
2 0 0 0 0 0 100 1 500 250 0 0 0 0 0 0 0 0 0 0 0 0;
2 0 0 0 0 0 100 1 500 250 0 0 0 0 0 0 0 0 0 0 0 0;
2 0 0 0 0 0 100 1 500 250 0 0 0 0 0 0 0 0 0 0 0 0;
2 0 0 0 0 0 100 1 500 250 0 0 0 0 0 0 0 0 0 0 0 0;
2 0 0 0 0 0 100 1 500 250 0 0 0 0 0 0 0 0 0 0 0 0;
2 0 0 0 0 0 100 1 500 250 0 0 0 0 0 0 0 0 0 0 0 0;
2 0 0 0 0 0 100 1 500 250 0 0 0 0 0 0 0 0 0 0 0 0;
2 0 0 0 0 0 100 1 500 250 0 0 0 0 0 0 0 0 0 0 0 0;
2 0 0 0 0 0 100 1 500 250 0 0 0 0 0 0 0 0 0 0 0 0;
2 0 0 0 0 0 100 1 500 250 0 0 0 0 0 0 0 0 0 0 0 0;
2 0 0 0 0 0 100 1 500 250 0 0 0 0 0 0 0 0 0 0 0 0;
2 0 0 0 0 0 100 1 500 250 0 0 0 0 0 0 0 0 0 0 0 0;
2 0 0 0 0 0 100 1 500 250 0 0 0 0 0 0 0 0 0 0 0 0;
2 0 0 0 0 0 100 1 500 250 0 0 0 0 0 0 0 0 0 0 0 0;
2 0 0 0 0 0 100 1 500 250 0 0 0 0 0 0 0 0 0 0 0 0;
2 0 0 0 0 0 100 1 500 250 0 0 0 0 0 0 0 0 0 0 0 0;
2 0 0 0 0 0 100 1 500 250 0 0 0 0 0 0 0 0 0 0 0 0;
2 0 0 0 0 0 100 1 500 250 0 0 0 0 0 0 0 0 0 0 0 0;
2 0 0 0 0 0 100 1 500 250 0 0 0 0 0 0 0 0 0 0 0 0;
2 0 0 0 0 0 100 1 500 250 0 0 0 0 0 0 0 0 0 0 0 0;
2 0 0 0 0 0 100 1 500 250 0 0 0 0 0 0 0 0 0 0 0 0;
2 0 0 0 0 0 100 1 500 250 0 0 0 0 0 0 0 0 0 0 0 0;
2 0 0 0 0 0 100 1 500 250 0 0 0 0 0 0 0 0 0 0 0 0;
2 0 0 0 0 0 100 1 500 250 0 0 0 0 0 0 0 0 0 0 0 0;
2 0 0 0 0 0 100 1 500 250 0 0 0 0 0 0 0 0 0 0 0 0;
2 0 0 0 0 0 100 1 500 250 0 0 0 0 0 0 0 0 0 0 0 0;
2 0 0 0 0 0 100 1 500 250 0 0 0 0 0 0 0 0 0 0 0 0;
2 0 0 0 0 0 100 1 500 250 0 0 0 0 0 0 0 0 0 0 0 0;
2 0 0 0 0 0 100 1 500 250 0 0 0 0 0 0 0 0 0 0 0 0;
2 0 0 0 0 0 100 1 500 250 0 0 0 0 0 0 0 0 0 0 0 0;
2 0 0 0 0 0 100 1 500 250 0 0 0 0 0 0 0 0 0 0 0 0;
2 0 0 0 0 0 100 1 500 250 0 0 0 0 0 0 0 0 0 0 0 0;
2 0 0 0 0 0 100 1 500 250 0 0 0 0 0 0 0 0 0 0 0 0;
2 0 0 0 0 0 100 1 500 250 0 0 0 0 0 0 0 0 0 0 0 0;
2 0 0 0 0 0 100 1 500 250 0 0 0 0 0 0 0 0 0 0 0 0;
2 0 0 0 0 0 100 1 500 250 0 0 0 0 0 0 0 0 0 0 0 0;
2 0 0 0 0 0 100 1 500 250 0 0 0 0 0 0 0 0 0 0 0 0;

2 0 0 0 0 0 100 1 100 50 0 0 0 0 0 0 0 0 0 0 0 0;
2 0 0 0 0 0 100 1 100 50 0 0 0 0 0 0 0 0 0 0 0 0;
2 0 0 0 0 0 100 1 100 50 0 0 0 0 0 0 0 0 0 0 0 0;
2 0 0 0 0 0 100 1 100 50 0 0 0 0 0 0 0 0 0 0 0 0;
2 0 0 0 0 0 100 1 100 50 0 0 0 0 0 0 0 0 0 0 0 0;
2 0 0 0 0 0 100 1 100 50 0 0 0 0 0 0 0 0 0 0 0 0;
2 0 0 0 0 0 100 1 100 50 0 0 0 0 0 0 0 0 0 0 0 0;
2 0 0 0 0 0 100 1 100 50 0 0 0 0 0 0 0 0 0 0 0 0;
2 0 0 0 0 0 100 1 100 50 0 0 0 0 0 0 0 0 0 0 0 0;
2 0 0 0 0 0 100 1 100 50 0 0 0 0 0 0 0 0 0 0 0 0;
2 0 0 0 0 0 100 1 100 50 0 0 0 0 0 0 0 0 0 0 0 0;
2 0 0 0 0 0 100 1 100 50 0 0 0 0 0 0 0 0 0 0 0 0;
2 0 0 0 0 0 100 1 100 50 0 0 0 0 0 0 0 0 0 0 0 0;
2 0 0 0 0 0 100 1 100 50 0 0 0 0 0 0 0 0 0 0 0 0;
2 0 0 0 0 0 100 1 100 50 0 0 0 0 0 0 0 0 0 0 0 0;
2 0 0 0 0 0 100 1 100 50 0 0 0 0 0 0 0 0 0 0 0 0;
2 0 0 0 0 0 100 1 100 50 0 0 0 0 0 0 0 0 0 0 0 0;
2 0 0 0 0 0 100 1 100 50 0 0 0 0 0 0 0 0 0 0 0 0;
2 0 0 0 0 0 100 1 100 50 0 0 0 0 0 0 0 0 0 0 0 0;
2 0 0 0 0 0 100 1 100 50 0 0 0 0 0 0 0 0 0 0 0 0;
2 0 0 0 0 0 100 1 100 50 0 0 0 0 0 0 0 0 0 0 0 0;
2 0 0 0 0 0 100 1 100 50 0 0 0 0 0 0 0 0 0 0 0 0;
2 0 0 0 0 0 100 1 100 50 0 0 0 0 0 0 0 0 0 0 0 0;
2 0 0 0 0 0 100 1 100 50 0 0 0 0 0 0 0 0 0 0 0 0;
2 0 0 0 0 0 100 1 100 50 0 0 0 0 0 0 0 0 0 0 0 0;
2 0 0 0 0 0 100 1 100 50 0 0 0 0 0 0 0 0 0 0 0 0;
2 0 0 0 0 0 100 1 100 50 0 0 0 0 0 0 0 0 0 0 0 0;
2 0 0 0 0 0 100 1 100 50 0 0 0 0 0 0 0 0 0 0 0 0;
2 0 0 0 0 0 100 1 100 50 0 0 0 0 0 0 0 0 0 0 0 0;
2 0 0 0 0 0 100 1 100 50 0 0 0 0 0 0 0 0 0 0 0 0;

2 0  0  0  0  0  100  1  1800  1400  0 0 0 0 0 0 0 0 0 0 0 0;
2 0  0  0  0  0  100  1  1800  1400  0 0 0 0 0 0 0 0 0 0 0 0;
2 0  0  0  0  0  100  1  1800  1400  0 0 0 0 0 0 0 0 0 0 0 0;
2 0  0  0  0  0  100  1  1800  1400  0 0 0 0 0 0 0 0 0 0 0 0;

2 0  0  0  0  0  100  1  2600  0  0 0 0 0 0 0 0 0 0 0 0 0;

2	0	0	0	0	0	100	1	1400	0	0	0	0	0	0	0	0	0	0	0	0	0;
	2	0	0	0	0	0	100	1	800	0	0	0	0	0	0	0	0	0	0	0	0	0;
	2	0	0	0	0	0	100	1	2955	0	0	0	0	0	0	0	0	0	0	0	0	0;
	2	0	0	0	0	0	100	1	2600	0	0	0	0	0	0	0	0	0	0	0	0	0;
	2	0	0	0	0	0	100	1	1380	0	0	0	0	0	0	0	0	0	0	0	0	0;
	2	0	0	0	0	0	100	1	300	0	0	0	0	0	0	0	0	0	0	0	0	0;
	2	0	0	0	0	0	100	1	1320	0	0	0	0	0	0	0	0	0	0	0	0	0;
	2	0	0	0	0	0	100	1	504	0	0	0	0	0	0	0	0	0	0	0	0	0;
	2	0	0	0	0	0	100	1	630	0	0	0	0	0	0	0	0	0	0	0	0	0;
	2	0	0	0	0	0	100	1	317	0	0	0	0	0	0	0	0	0	0	0	0	0;
	2	0	0	0	0	0	100	1	270	0	0	0	0	0	0	0	0	0	0	0	0	0;
	2	0	0	0	0	0	100	1	289.8	0	0	0	0	0	0	0	0	0	0	0	0	0;
	2	0	0	0	0	0	100	1	1200	0	0	0	0	0	0	0	0	0	0	0	0	0;
	2	0	0	0	0	0	100	1	389	0	0	0	0	0	0	0	0	0	0	0	0	0;
	2	0	0	0	0	0	100	1	400	0	0	0	0	0	0	0	0	0	0	0	0	0;
	2	0	0	0	0	0	100	1	588	0	0	0	0	0	0	0	0	0	0	0	0	0;
	2	0	0	0	0	0	100	1	450	0	0	0	0	0	0	0	0	0	0	0	0	0;
	2	0	0	0	0	0	100	1	714	0	0	0	0	0	0	0	0	0	0	0	0	0;
	2	0	0	0	0	0	100	1	1218	0	0	0	0	0	0	0	0	0	0	0	0	0;
	2	0	0	0	0	0	100	1	353	0	0	0	0	0	0	0	0	0	0	0	0	0;
	2	0	0	0	0	0	100	1	1080	0	0	0	0	0	0	0	0	0	0	0	0	0;
	2	0	0	0	0	0	100	1	857	0	0	0	0	0	0	0	0	0	0	0	0	0;
	2	0	0	0	0	0	100	1	659	0	0	0	0	0	0	0	0	0	0	0	0	0;
	2	0	0	0	0	0	100	1	950	0	0	0	0	0	0	0	0	0	0	0	0	0;
	2	0	0	0	0	0	100	1	402	0	0	0	0	0	0	0	0	0	0	0	0	0;
	2	0	0	0	0	0	100	1	258	0	0	0	0	0	0	0	0	0	0	0	0	0;
	2	0	0	0	0	0	100	1	1075	0	0	0	0	0	0	0	0	0	0	0	0	0;
	2	0	0	0	0	0	100	1	2400	0	0	0	0	0	0	0	0	0	0	0	0	0;
	2	0	0	0	0	0	100	1	576	0	0	0	0	0	0	0	0	0	0	0	0	0;
	2	0	0	0	0	0	100	1	219	0	0	0	0	0	0	0	0	0	0	0	0	0;
	2	0	0	0	0	0	100	1	210	0	0	0	0	0	0	0	0	0	0	0	0	0;
	2	0	0	0	0	0	100	1	322	0	0	0	0	0	0	0	0	0	0	0	0	0;
	2	0	0	0	0	0	100	1	350	0	0	0	0	0	0	0	0	0	0	0	0	0;
	2	0	0	0	0	0	100	1	239	0	0	0	0	0	0	0	0	0	0	0	0	0;
	2	0	0	0	0	0	100	1	208	0	0	0	0	0	0	0	0	0	0	0	0	0;
	2	0	0	0	0	0	100	1	240	0	0	0	0	0	0	0	0	0	0	0	0	0;
	2	0	0	0	0	0	100	1	228	0	0	0	0	0	0	0	0	0	0	0	0	0;
	2	0	0	0	0	0	100	1	227.7	0	0	0	0	0	0	0	0	0	0	0	0	0;
	2	0	0	0	0	0	100	1	370	0	0	0	0	0	0	0	0	0	0	0	0	0;
	2	0	0	0	0	0	100	1	900	0	0	0	0	0	0	0	0	0	0	0	0	0;
	2	0	0	0	0	0	100	1	882	0	0	0	0	0	0	0	0	0	0	0	0	0;
	2	0	0	0	0	0	100	1	225	0	0	0	0	0	0	0	0	0	0	0	0	0;
	2	0	0	0	0	0	100	1	1400	0	0	0	0	0	0	0	0	0	0	0	0	0;
	2	0	0	0	0	0	100	1	283.5	0	0	0	0	0	0	0	0	0	0	0	0	0;
	2	0	0	0	0	0	100	1	1400	0	0	0	0	0	0	0	0	0	0	0	0	0;
	2	0	0	0	0	0	100	1	205.8	0	0	0	0	0	0	0	0	0	0	0	0	0;
	2	0	0	0	0	0	100	1	308	0	0	0	0	0	0	0	0	0	0	0	0	0;
	2	0	0	0	0	0	100	1	443	0	0	0	0	0	0	0	0	0	0	0	0	0;
	2	0	0	0	0	0	100	1	317	0	0	0	0	0	0	0	0	0	0	0	0	0;
	2	0	0	0	0	0	100	1	402	0	0	0	0	0	0	0	0	0	0	0	0	0;
	2	0	0	0	0	0	100	1	1200	0	0	0	0	0	0	0	0	0	0	0	0	0;
	2	0	0	0	0	0	100	1	775	0	0	0	0	0	0	0	0	0	0	0	0	0;
	2	0	0	0	0	0	100	1	222	0	0	0	0	0	0	0	0	0	0	0	0	0;
	2	0	0	0	0	0	100	1	4100	0	0	0	0	0	0	0	0	0	0	0	0	0;
	2	0	0	0	0	0	100	1	2000	0	0	0	0	0	0	0	0	0	0	0	0	0;
	2	0	0	0	0	0	100	1	1500	0	0	0	0	0	0	0	0	0	0	0	0	0;
	2	0	0	0	0	0	100	1	1500	0	0	0	0	0	0	0	0	0	0	0	0	0;
	2	0	0	0	0	0	100	1	480	0	0	0	0	0	0	0	0	0	0	0	0	0;
	2	0	0	0	0	0	100	1	1500	0	0	0	0	0	0	0	0	0	0	0	0	0;
	2	0	0	0	0	0	100	1	560	0	0	0	0	0	0	0	0	0	0	0	0	0;
	2	0	0	0	0	0	100	1	3600	0	0	0	0	0	0	0	0	0	0	0	0	0;
	2	0	0	0	0	0	100	1	540	0	0	0	0	0	0	0	0	0	0	0	0	0;
	2	0	0	0	0	0	100	1	250	0	0	0	0	0	0	0	0	0	0	0	0	0;
	2	0	0	0	0	0	100	1	1380	0	0	0	0	0	0	0	0	0	0	0	0	0;
];


%% bus mapping: n1=1, n2=2, n3=3, n4=4, n5=5, n6=6

%% branch data r, x, b assigned randomly using random data for matpower case 14
%  1-fbus  2-tbus   3-r       4-x       5-b       6-rateA  7-rateB  8-rateC  9-ratio  10-angle  11-status  12-angmin  13-angmax
mpc.branch = [
     1       2     0.0235    0.0712    0.0356     100      100      100       0         0         1         -60         60;  % n1–n2
     ];

%% dc grid topology
%colunm_names% dcpoles
mpc.dcpol=2;
% numbers of poles (1=monopolar grid, 2=bipolar grid)
%% bus data
%column_names%  busdc_i    grid    Pdc     Vdc   basekVdc    Vdcmax   Vdcmin   Cdc  area
mpc.busdc = [
    			1       1       0       1       500       1.1     0.9     0	  1;
				2       2       0       1       500       1.1     0.9     0	  2;
];

%% converters
%column_names%  busdc_i  busac_i  area  type_dc  type_ac   P_g       Q_g   islcc  Vtar   rtf   xtf   transformer  tm   bf    filter   rc     xc     reactor  basekVac  Vmmax  Vmmin  Imax  status  LossA  LossB  LossCrec  LossCinv  droop    Pdcset     Vdcset   dVdcset  Pacmax  Pacmin  Qacmax  Qacmin   DT   reservecost
mpc.convdc = [
                1        1        1     2        1        -577.5     0     0      1     0.01  0.01      1        1   0.01     0     0.01   0.01     0       500      1.1    0.9    1.1    1     1.103  0.887  2.885   2.885    0.0050   -465.9871  0.9999    1400.0001   1400.0001   1400.0001   1400.0001   -1400.0001   0.2    0.01;
                2        2        2     3        1         -550      0     0      1     0.01  0.01      1        1   0.01     0     0.01   0.01     0       500      1.1    0.9    1.1    1     1.103  0.887  2.885   2.885    0.0050   -517.1051  1.0022    1400.0001   1400.0001   1400.0001   1400.0001   -1400.0001   0.2    0.01;
];


%% branches
%column_names%  fbusdc  tbusdc  r        l   c   rateA   rateB   rateC   status
mpc.branchdc = [
      1        2       0.0012   0    0      1400.0001       1400.0001       1400.0001        1;
];

%% generator cost data
% 1-model  2-startup  3-shutdown  4-n   5-c1($/MWh)  6-c0
% Linear cost model: Cost = c1*P + c0. All rows use n=2, so only 2 coefficients (c1, c0) are given.
% Area 1 (Nordic) rows: costs in EUR.
% Area 2 (GB) rows: costs in EUR, converted from GBP using 1 GBP = 54.83/50 EUR = 1.0966 EUR.
mpc.gencost = [
2	0	0	2	6.0260	0;
2	0	0	2	6.8720	0;
2	0	0	2	6.2030	0;
2	0	0	2	6.7300	0;
2	0	0	2	7.1200	0;
2	0	0	2	7.1660	0;
2	0	0	2	8.6590	0;
2	0	0	2	8.6140	0;
2	0	0	2	8.3460	0;
2	0	0	2	7.6570	0;
2	0	0	2	5.5070	0;
2	0	0	2	6.4900	0;
2	0	0	2	7.6430	0;
2	0	0	2	8.9690	0;
2	0	0	2	8.4340	0;
2	0	0	2	6.0780	0;
2	0	0	2	7.3080	0;
2	0	0	2	8.9080	0;
2	0	0	2	7.4870	0;
2	0	0	2	7.1910	0;
2	0	0	2	6.3840	0;
2	0	0	2	6.7410	0;
2	0	0	2	6.6050	0;
2	0	0	2	6.9430	0;
2	0	0	2	6.7260	0;
2	0	0	2	7.6040	0;
2	0	0	2	6.8650	0;
2	0	0	2	7.2340	0;
2	0	0	2	5.7660	0;
2	0	0	2	7.7690	0;
2	0	0	2	7.8358	0;
2	0	0	2	7.9754	0;
2	0	0	2	5.5052	0;
2	0	0	2	6.0671	0;
2	0	0	2	5.8794	0;
2	0	0	2	7.911027	0;
2	0	0	2	5.34202	0;
2	0	0	2	5.38447	0;
2	0	0	2	7.784357	0;
2	0	0	2	7.260093307	0;
2	0	0	2	7.399108	0;
2	0	0	2	6.196651	0;
2	0	0	2	7.362056278	0;
2	0	0	2	6.475191519	0;
2	0	0	2	8.6320	0;
2	0	0	2	8.4820	0;
2	0	0	2	2.9150	0;
2	0	0	2	2.6760	0;
2	0	0	2	3.4280	0;
2	0	0	2	12.6940	0;
2	0	0	2	13.0710	0;
2	0	0	2	10.9540	0;
2	0	0	2	10.9490	0;
2	0	0	2	10.3650	0;
2	0	0	2	10.2110	0;
2	0	0	2	10.4180	0;
2	0	0	2	10.9580	0;
2	0	0	2	10.7290	0;
2	0	0	2	10.6490	0;
2	0	0	2	10.5320	0;
2	0	0	2	10.8760	0;
2	0	0	2	11.0240	0;
2	0	0	2	10.4470	0;
2	0	0	2	10.7930	0;
2	0	0	2	11.1820	0;
2	0	0	2	10.3680	0;
2	0	0	2	10.6150	0;
2	0	0	2	10.9020	0;
2	0	0	2	11.0560	0;
2	0	0	2	10.7210	0;
2	0	0	2	67.0500	0;
2	0	0	2	68.3080	0;
2	0	0	2	70.8810	0;
2	0	0	2	67.1170	0;
2	0	0	2	68.4150	0;
2	0	0	2	62.0260	0;
2	0	0	2	61.2560	0;
2	0	0	2	57.1070	0;
2	0	0	2	56.1760	0;
2	0	0	2	60.8490	0;
2	0	0	2	58.6800	0;
2	0	0	2	58.8910	0;
2	0	0	2	58.2667	0;
2	0	0	2	58.3030	0;
2	0	0	2	31.9780	0;
2	0	0	2	36.6670	0;
2	0	0	2	41.1604	0;
2	0	0	2	37.0426	0;
2	0	0	2	37.3583	0;
2	0	0	2	36.0357	0;
2	0	0	2	38.5052	0;
2	0	0	2	37.6739	0;
2	0	0	2	29.0540	0;
2	0	0	2	42.0553	0;
2	0	0	2	39.1035	0;
2	0	0	2	43.5000	0;
2	0	0	2	40.3591	0;
2	0	0	2	35.6900	0;
2	0	0	2	40.8867	0;
2	0	0	2	38.4133	0;
2	0	0	2	40.0835	0;
2	0	0	2	28.5570	0;
2	0	0	2	36.3852	0;
2	0	0	2	38.6909	0;
2	0	0	2	40.7448	0;
2	0	0	2	39.3822	0;
2	0	0	2	36.0076	0;
2	0	0	2	43.0311	0;
2	0	0	2	42.8487	0;
2	0	0	2	31.0480	0;
2	0	0	2	37.9357	0;
2	0	0	2	39.4662	0;
2	0	0	2	39.8078	0;
2	0	0	2	42.3630	0;
2	0	0	2	39.6604	0;
2	0	0	2	36.4760	0;
2	0	0	2	36.3232	0;
2	0	0	2	44.4812	0;
2	0	0	2	38.7810	0;
2	0	0	2	40.0814	0;
2	0	0	2	38.2233	0;
2	0	0	2	43.5500	0;
2	0	0	2	41.8617	0;
2	0	0	2	36.3413	0;
2	0	0	2	29.4670	0;
2	0	0	2	38.0964	0;
2	0	0	2	40.5490	0;
2	0	0	2	41.8995	0;
2	0	0	2	118.1340 0;
2	0	0	2	0	0;
2	0	0	2	0	0;
2	0	0	2	0	0;
2	0	0	2	0	0;
2	0	0	2	0	0;
2	0	0	2	0	0;
2	0	0	2	0	0;
2	0	0	2	0	0;
2	0	0	2	0	0;
2	0	0	2	0	0;
2	0	0	2	0	0;
2	0	0	2	0	0;
2	0	0	2	0	0;
2	0	0	2	0	0;
2	0	0	2	0	0;
2	0	0	2	0	0;
2	0	0	2	0	0;
2	0	0	2	0	0;
2	0	0	2	0	0;
2	0	0	2	0	0;
2	0	0	2	0	0;
2	0	0	2	0	0;
2	0	0	2	0	0;
2	0	0	2	0	0;
2	0	0	2	0	0;
2	0	0	2	0	0;
2	0	0	2	0	0;
2	0	0	2	0	0;
2	0	0	2	0	0;
2	0	0	2	0	0;
2	0	0	2	0	0;
2	0	0	2	0	0;
2	0	0	2	0	0;
2	0	0	2	0	0;
2	0	0	2	0	0;
2	0	0	2	0	0;
2	0	0	2	0	0;
2	0	0	2	0	0;
2	0	0	2	0	0;
2	0	0	2	0	0;
2	0	0	2	0	0;
2	0	0	2	0	0;
2	0	0	2	0	0;
2	0	0	2	0	0;
2	0	0	2	0	0;
2	0	0	2	0	0;
2	0	0	2	0	0;
2	0	0	2	0	0;
2	0	0	2	0	0;
2	0	0	2	0	0;
2	0	0	2	0	0;
2	0	0	2	0	0;
2	0	0	2	0	0;
2	0	0	2	0	0;
2	0	0	2	0	0;
2	0	0	2	0	0;
2	0	0	2	0	0;
2	0	0	2	0	0;
2	0	0	2	0	0;
2	0	0	2	0	0;
2	0	0	2	0	0;
2	0	0	2	0	0;
2	0	0	2	0	0;
2	0	0	2	0	0;
2	0	0	2	0	0;
2	0	0	2	0	0;
2	0	0	2	0	0;
2	0	0	2	0	0;
2	0	0	2	0	0;
2	0	0	2	0	0;
2	0	0	2	0	0;
...

2	0	0	2	0	0;
2	0	0	2	0	0;
2	0	0	2	0	0;
2	0	0	2	0	0;
2	0	0	2	0	0;
2	0	0	2	0	0;
2	0	0	2	0	0;
2	0	0	2	0	0;
2	0	0	2	0	0;
2	0	0	2	0	0;
2	0	0	2	0	0;
2	0	0	2	0	0;
2	0	0	2	0	0;
2	0	0	2	0	0;
2	0	0	2	0	0;
2	0	0	2	0	0;
2	0	0	2	0	0;
2	0	0	2	0	0;
2	0	0	2	0	0;
2	0	0	2	0	0;
2	0	0	2	0	0;
2	0	0	2	0	0;
2	0	0	2	0	0;
2	0	0	2	0	0;
2	0	0	2	0	0;
2	0	0	2	0	0;
2	0	0	2	0	0;
2	0	0	2	0	0;
2	0	0	2	0	0;
2	0	0	2	0	0;
2	0	0	2	0	0;
2	0	0	2	0	0;
2	0	0	2	0	0;
2	0	0	2	0	0;
2	0	0	2	0	0;
2	0	0	2	0	0;
2	0	0	2	0	0;
2	0	0	2	0	0;
2	0	0	2	0	0;
2	0	0	2	0	0;
2	0	0	2	0	0;
2	0	0	2	0	0;
2	0	0	2	0	0;
2	0	0	2	0	0;
2	0	0	2	0	0;
2	0	0	2	0	0;
2	0	0	2	0	0;
2	0	0	2	0	0;
2	0	0	2	0	0;
2	0	0	2	0	0;
2	0	0	2	0	0;
2	0	0	2	0	0;
2	0	0	2	0	0;
2	0	0	2	0	0;
2	0	0	2	0	0;
2	0	0	2	0	0;
2	0	0	2	0	0;
2	0	0	2	0	0;
2	0	0	2	0	0;
2	0	0	2	0	0;
2	0	0	2	0	0;
2	0	0	2	0	0;
2	0	0	2	0	0;
2	0	0	2	0	0;
2	0	0	2	0	0;
2	0	0	2	0	0;
2	0	0	2	0	0;
2	0	0	2	0	0;
2	0	0	2	0	0;
2	0	0	2	0	0;
2	0	0	2	0	0;
2	0	0	2	0	0;
2	0	0	2	0	0;
2	0	0	2	0	0;


2 10966 0 2 51.5402 4934.7;
2 10966 0 2 51.5402 4934.7;
2 10966 0 2 51.5402 4934.7;
2 10966 0 2 51.5402 4934.7;
2 10966 0 2 51.5402 4934.7;
2 10966 0 2 51.5402 4934.7;
2 10966 0 2 51.5402 4934.7;
2 10966 0 2 51.5402 4934.7;
2 10966 0 2 51.5402 4934.7;
2 10966 0 2 51.5402 4934.7;
2 10966 0 2 51.5402 4934.7;
2 10966 0 2 51.5402 4934.7;
2 10966 0 2 51.5402 4934.7;
2 10966 0 2 51.5402 4934.7;
2 10966 0 2 51.5402 4934.7;
2 10966 0 2 51.5402 4934.7;
2 10966 0 2 51.5402 4934.7;
2 10966 0 2 51.5402 4934.7;
2 10966 0 2 51.5402 4934.7;
2 10966 0 2 51.5402 4934.7;
2 10966 0 2 51.5402 4934.7;
2 10966 0 2 51.5402 4934.7;
2 10966 0 2 51.5402 4934.7;
2 10966 0 2 51.5402 4934.7;
2 10966 0 2 51.5402 4934.7;
2 10966 0 2 51.5402 4934.7;
2 10966 0 2 51.5402 4934.7;
2 10966 0 2 51.5402 4934.7;
2 10966 0 2 51.5402 4934.7;
2 10966 0 2 51.5402 4934.7;
2 10966 0 2 51.5402 4934.7;
2 10966 0 2 51.5402 4934.7;
2 10966 0 2 51.5402 4934.7;
2 10966 0 2 51.5402 4934.7;
2 10966 0 2 51.5402 4934.7;
2 10966 0 2 51.5402 4934.7;
2 10966 0 2 51.5402 4934.7;
2 10966 0 2 51.5402 4934.7;
2 10966 0 2 51.5402 4934.7;
2 10966 0 2 51.5402 4934.7;
2 10966 0 2 51.5402 4934.7;
2 10966 0 2 51.5402 4934.7;
2 10966 0 2 51.5402 4934.7;
2 10966 0 2 51.5402 4934.7;
2 10966 0 2 51.5402 4934.7;
2 10966 0 2 51.5402 4934.7;
2 10966 0 2 51.5402 4934.7;
2 10966 0 2 51.5402 4934.7;
2 10966 0 2 51.5402 4934.7;
2 10966 0 2 51.5402 4934.7;
2 10966 0 2 51.5402 4934.7;
2 10966 0 2 51.5402 4934.7;
2 10966 0 2 51.5402 4934.7;
2 10966 0 2 51.5402 4934.7;
2 10966 0 2 51.5402 4934.7;
2 10966 0 2 51.5402 4934.7;
2 10966 0 2 51.5402 4934.7;
2 10966 0 2 51.5402 4934.7;
2 10966 0 2 51.5402 4934.7;
2 10966 0 2 51.5402 4934.7;
2 10966 0 2 51.5402 4934.7;
2 10966 0 2 51.5402 4934.7;
2 10966 0 2 51.5402 4934.7;
2 10966 0 2 51.5402 4934.7;
2 10966 0 2 51.5402 4934.7;
2 10966 0 2 51.5402 4934.7;
2 10966 0 2 51.5402 4934.7;
2 10966 0 2 51.5402 4934.7;
2 10966 0 2 51.5402 4934.7;
2 10966 0 2 51.5402 4934.7;
2 10966 0 2 51.5402 4934.7;
2 10966 0 2 51.5402 4934.7;
2 10966 0 2 51.5402 4934.7;
2 10966 0 2 51.5402 4934.7;
2 10966 0 2 51.5402 4934.7;
2 10966 0 2 51.5402 4934.7;
2 10966 0 2 51.5402 4934.7;
2 10966 0 2 51.5402 4934.7;
2 10966 0 2 51.5402 4934.7;
2 10966 0 2 51.5402 4934.7;
2 10966 0 2 51.5402 4934.7;
2 10966 0 2 51.5402 4934.7;
2 10966 0 2 51.5402 4934.7;
2 10966 0 2 51.5402 4934.7;
2 10966 0 2 51.5402 4934.7;
2 10966 0 2 51.5402 4934.7;
2 10966 0 2 51.5402 4934.7;
2 10966 0 2 51.5402 4934.7;
2 10966 0 2 51.5402 4934.7;
2 10966 0 2 51.5402 4934.7;
2 10966 0 2 51.5402 4934.7;
2 10966 0 2 51.5402 4934.7;
2 10966 0 2 51.5402 4934.7;
2 10966 0 2 51.5402 4934.7;
2 10966 0 2 51.5402 4934.7;
2 10966 0 2 51.5402 4934.7;
2 10966 0 2 51.5402 4934.7;
2 10966 0 2 51.5402 4934.7;
2 10966 0 2 51.5402 4934.7;
2 10966 0 2 51.5402 4934.7;

2  0  0  2  219.32  3289.8;
2  0  0  2  219.32  3289.8;
2  0  0  2  219.32  3289.8;
2  0  0  2  219.32  3289.8;
2  0  0  2  219.32  3289.8;
2  0  0  2  219.32  3289.8;
2  0  0  2  219.32  3289.8;
2  0  0  2  219.32  3289.8;
2  0  0  2  219.32  3289.8;
2  0  0  2  219.32  3289.8;
2  0  0  2  219.32  3289.8;
2  0  0  2  219.32  3289.8;
2  0  0  2  219.32  3289.8;
2  0  0  2  219.32  3289.8;
2  0  0  2  219.32  3289.8;
2  0  0  2  219.32  3289.8;
2  0  0  2  219.32  3289.8;
2  0  0  2  219.32  3289.8;
2  0  0  2  219.32  3289.8;
2  0  0  2  219.32  3289.8;
2  0  0  2  219.32  3289.8;
2  0  0  2  219.32  3289.8;
2  0  0  2  219.32  3289.8;
2  0  0  2  219.32  3289.8;
2  0  0  2  219.32  3289.8;
2  0  0  2  219.32  3289.8;
2  0  0  2  219.32  3289.8;
2  0  0  2  219.32  3289.8;
2  0  0  2  219.32  3289.8;
2  0  0  2  219.32  3289.8;

2 0 0 2 10.966 0;
2 0 0 2 10.966 0;
2 0 0 2 10.966 0;
2 0 0 2 10.966 0;

2  0  0  2  0  0;

2  0  0  2  0  0;
2  0  0  2  0  0;
2  0  0  2  0  0;
2  0  0  2  0  0;
2  0  0  2  0  0;
2  0  0  2  0  0;
2  0  0  2  0  0;
2  0  0  2  0  0;
2  0  0  2  0  0;
2  0  0  2  0  0;
2  0  0  2  0  0;
2  0  0  2  0  0;
2  0  0  2  0  0;
2  0  0  2  0  0;
2  0  0  2  0  0;
2  0  0  2  0  0;
2  0  0  2  0  0;
2  0  0  2  0  0;
2  0  0  2  0  0;
2  0  0  2  0  0;
2  0  0  2  0  0;
2  0  0  2  0  0;
2  0  0  2  0  0;
2  0  0  2  0  0;
2  0  0  2  0  0;
2  0  0  2  0  0;
2  0  0  2  0  0;
2  0  0  2  0  0;
2  0  0  2  0  0;
2  0  0  2  0  0;
2  0  0  2  0  0;
2  0  0  2  0  0;
2  0  0  2  0  0;
2  0  0  2  0  0;
2  0  0  2  0  0;
2  0  0  2  0  0;
2  0  0  2  0  0;
2  0  0  2  0  0;
2  0  0  2  0  0;
2  0  0  2  0  0;
2  0  0  2  0  0;
2  0  0  2  0  0;
2  0  0  2  0  0;
2  0  0  2  0  0;
2  0  0  2  0  0;
2  0  0  2  0  0;
2  0  0  2  0  0;
2  0  0  2  0  0;
2  0  0  2  0  0;
2  0  0  2  0  0;
2  0  0  2  0  0;
2  0  0  2  0  0;
2  0  0  2  0  0;
2  0  0  2  0  0;
2  0  0  2  0  0;
2  0  0  2  0  0;
2  0  0  2  0  0;
2  0  0  2  0  0;
2  0  0  2  0  0;
2  0  0  2  0  0;
2  0  0  2  0  0;
2  0  0  2  0  0;
2  0  0  2  0  0;
2  0  0  2  0  0;
];

%% Unified extra operational data with technology type
% Columns:
% Bus  DT[s]  IC[s]  upramp_MWph  downramp_MWph  MUT[h]  MDT[h]  reservecost_g  MaxFRdeliverable[MW]  Ppump  Storage      type  n_pumping  n_generating  E_Pump_min  E_Pump_ini  E_pump_end 
%
% type:
% 1 = mpc.genextra_reservoir
% 2 = mpc.gen_extra_pump
% 3 = mpc.gen_extra_nuclear
% 4 = mpc.gen_extra_gas
% 5 = mpc.gen_extra_biomass
% 6 = mpc.gen_extra_oil
% 7 = mpc.gen_extra_solar
% 8 = mpc.gen_extra_wind
%
% Column 8 (reservecost_g) is the unit's reserve price, in EUR/MW-h.
% All synchronous generator types (1-6) use the same reserve price: 14.29 EUR/MW-h, in both areas.
% Solar and wind (types 7-8) do not provide reserve, so their reserve price is 0.
mpc.genextra = [1 15.004 4 2042.84 2042.84 0 0 14.29 204.284 0 3490352 1 0 0.9 349035.2 3490352 3455448.48 1;
1 15.004 4 894.69 894.69 0 0 14.29 89.469 0 1528653 1 0 0.9 152865.3 1528653 1513366.47 1;
1 15.004 4 299.08 299.08 0 0 14.29 29.908 0 510995 1 0 0.9 51099.5 510995 505885.05 1;
1 15.004 4 1730.37 1730.37 0 0 14.29 173.037 0 3706323 1 0 0.9 370632.3 3706323 3669259.77 1;
1 15.004 4 150.65 150.65 0 0 14.29 15.065 0 322671 1 0 0.9 32267.1 322671 319444.29 1;
1 15.004 4 383.08 383.08 0 0 14.29 38.308 0 820529 1 0 0.9 82052.9 820529 812323.71 1;
1 15.004 4 232.33 232.33 0 0 14.29 23.233 0 497632 1 0 0.9 49763.2 497632 492655.68 1;
1 15.004 4 1031.58 1031.58 0 0 14.29 103.158 0 2209561 1 0 0.9 220956.1 2209561 2187465.39 1;
1 15.004 4 517.79 517.79 0 0 14.29 51.779 0 1980268 1 0 0.9 198026.8 1980268 1960465.32 1;
1 15.004 4 179.49 179.49 0 0 14.29 17.949 0 686433 1 0 0.9 68643.3 686433 679568.67 1;
1 15.004 4 828.33 828.33 0 0 14.29 82.833 0 3167895 1 0 0.9 316789.5 3167895 3136216.05 1;
1 15.004 4 1199.29 1199.29 0 0 14.29 119.929 0 4586614 1 0 0.9 458661.4 4586614 4540747.86 1;
1 15.004 4 1876.63 1876.63 0 0 14.29 187.663 0 7177080 1 0 0.9 717708 7177080 7105309.20 1;
1 15.004 4 38.98 38.98 0 0 14.29 3.898 0 149066 1 0 0.9 14906.6 149066 147575.34 1;
1 15.004 4 100.12 100.12 0 0 14.29 10.012 0 382913 1 0 0.9 38291.3 382913 379083.87 1;
1 15.004 4 2654.59 2654.59 0 0 14.29 265.459 0 10152364 1 0 0.9 1015236.4 10152364 10050840.36 1;
1 15.004 4 425.64 425.64 0 0 14.29 42.564 0 1627857 1 0 0.9 162785.7 1627857 1611578.43 1;
1 15.004 4 476.73 476.73 0 0 14.29 47.673 0 1823222 1 0 0.9 182322.2 1823222 1804990.78 1;
1 15.004 4 150.08 150.08 0 0 14.29 15.008 0 573985 1 0 0.9 57398.5 573985 568245.15 1;
1 15.004 4 1004.57 1004.57 0 0 14.29 100.457 0 4653316 1 0 0.9 465331.6 4653316 4606782.84 1;
1 15.004 4 3355.43 3355.43 0 0 14.29 335.543 0 6524384 1 0 0.9 652438.4 6524384 6459140.16 1;
1 15.004 4 858.02 858.02 0 0 14.29 85.802 0 3743390 1 0 0.9 374339 3743390 3705956.10 1;
1 15.004 4 2358.23 2358.23 0 0 14.29 235.823 0 10288543 1 0 0.9 1028854.3 10288543 10185657.57 1;
1 15.004 4 2076.75 2076.75 0 0 14.29 207.675 0 9060467 1 0 0.9 906046.7 9060467 8969862.33 1;
1 15.004 4 774.52 774.52 0 0 14.29 77.452 0 1342375 1 0 0.9 134237.5 1342375 1328951.25 1;
1 15.004 4 4476.97 4476.97 0 0 14.29 447.697 0 7759368 1 0 0.9 775936.8 7759368 7681774.32 1;
1 15.004 4 690.11 690.11 0 0 14.29 69.011 0 1196078 1 0 0.9 119607.8 1196078 1184117.22 1;
1 15.004 4 750.68 750.68 0 0 14.29 75.068 0 1301067 1 0 0.9 130106.7 1301067 1288056.33 1;
1 15.004 4 1270.15 1270.15 0 0 14.29 127.015 0 2201386 1 0 0.9 220138.6 2201386 2179372.14 1;
1 15.004 4 2400.57 2400.57 0 0 14.29 240.057 0 4160615 1 0 0.9 416061.5 4160614 4119008.85 1;
1 15.004 4 1025.76 1025.76 0 0 14.29 102.576 0 2718217 1 0 0.9 271821.7 2718217 2691034.83 1;
1 15.004 4 4418.24 4418.24 0 0 14.29 441.824 0 11708090 1 0 0.9 1170809 11708090 11591009.10 1;
1 15.004 4 655.60 655.60 0 0 14.29 65.560 0 1201458 1 0 0.9 120145.8 1201458 1189443.42 1;
1 15.004 4 782.18 782.18 0 0 14.29 78.218 0 1433439 1 0 0.9 143343.9 1433439 1419104.61 1;
1 15.004 4 3417.36 3417.36 0 0 14.29 341.736 0 6262722 1 0 0.9 626272.2 6262722 6200094.78 1;
1 15.004 4 3219.97 3219.97 0 0 14.29 321.997 0 5900981 1 0 0.9 590098.1 5900981 5841971.19 1;
1 15.004 4 1728.26 1728.26 0 0 14.29 172.826 0 1763109 1 0 0.9 176310.9 1763109 1745477.91 1;
1 15.004 4 121.84 121.84 0 0 14.29 12.184 0 124296 1 0 0.9 12429.6 124296 123053.04 1;
1 15.004 4 375.38 375.38 0 0 14.29 37.538 0 382950 1 0 0.9 38295 382950 379120.50 1;
1 15.004 4 275.42 275.42 0 0 14.29 27.542 0 280978 1 0 0.9 28097.8 280978 278168.22 1;
1 15.004 4 52.08 52.08 0 0 14.29 5.208 0 53132 1 0 0.9 5313.2 53132 52600.68 1;
1 15.004 4 30.01 30.01 0 0 14.29 3.001 0 30612 1 0 0.9 3061.2 30612 30305.88 1;
1 15.004 4 21.13 21.13 0 0 14.29 2.113 0 64369 1 0 0.9 6436.9 64369 63725.31 1;
1 15.004 4 323.87 323.87 0 0 14.29 32.387 0 146981 1 0 0.9 14698.1 146981 145511.19 1;
1 15.004 4 35.89 35.89 0 0 14.29 3.589 -21.39 126069 2 0.7 0.9 12606.9 18910.35 18910.35 1;
1 15.004 4 861.44 861.44 0 0 14.29 86.144 -515.61 4076931 2 0.7 0.9 407693.1 611539.65 611539.65 1;
1 15.004 4 96.00 96.00 0 0 14.29 9.600 -84.00 182000 2 0.7 0.9 18200 27300 27300 1;
1 15.004 4 322.74 322.74 0 0 14.29 32.274 -299.14 563362 2 0.7 0.9 56336.2 84504.3 84504.3 1;
1 15.004 4 53.26 53.26 0 0 14.29 5.326 -49.86 74638 2 0.7 0.9 7463.8 11195.7 11195.7 1;
1 15.004 5 501 501 24 0 14.29 50.1 0 0 3 0 0 0 0 0 1;
1 15.004 5 501 501 24 0 14.29 50.1 0 0 3 0 0 0 0 0 1;
1 15.004 5 888 888 24 0 14.29 88.8 0 0 3 0 0 0 0 0 1;
1 15.004 5 888 888 24 0 14.29 88.8 0 0 3 0 0 0 0 0 1;
1 15.004 5 1615 1615 24 0 14.29 161.5 0 0 3 0 0 0 0 0 1;
1 15.004 5 1119 1119 24 0 14.29 111.9 0 0 3 0 0 0 0 0 1;
1 15.004 5 1166 1166 24 0 14.29 116.6 0 0 3 0 0 0 0 0 1;
1 15.004 5 1064 1064 24 0 14.29 106.4 0 0 3 0 0 0 0 0 1;
1 15.004 5 1105 1105 24 0 14.29 110.5 0 0 3 0 0 0 0 0 1;
1 15.004 5 1398 1398 24 0 14.29 139.8 0 0 3 0 0 0 0 0 1;
1 15.004 5 1127 1127 24 0 14.29 112.7 0 0 3 0 0 0 0 0 1;
1 15.004 5 1127 1127 24 0 14.29 112.7 0 0 3 0 0 0 0 0 1;
1 15.004 5 1127 1127 24 0 14.29 112.7 0 0 3 0 0 0 0 0 1;
1 15.004 5 1127 1127 24 0 14.29 112.7 0 0 3 0 0 0 0 0 1;
1 15.004 5 1127 1127 24 0 14.29 112.7 0 0 3 0 0 0 0 0 1;
1 15.004 5 1127 1127 24 0 14.29 112.7 0 0 3 0 0 0 0 0 1;
1 15.004 5 1127 1127 24 0 14.29 112.7 0 0 3 0 0 0 0 0 1;
1 15.004 5 1127 1127 24 0 14.29 112.7 0 0 3 0 0 0 0 0 1;
1 15.004 5 1127 1127 24 0 14.29 112.7 0 0 3 0 0 0 0 0 1;
1 15.004 5 1127 1127 24 0 14.29 112.7 0 0 3 0 0 0 0 0 1;
1 15.004 5 1127 1127 24 0 14.29 112.7 0 0 3 0 0 0 0 0 1;
1 15.004 4 583.2 583.2 0 0 14.29 16.2 0 0 4 0 0 0 0 0 1;
1 15.004 4 388.8 388.8 0 0 14.29 10.8 0 0 4 0 0 0 0 0 1;
1 15.004 4 763.2 763.2 0 0 14.29 21.2 0 0 4 0 0 0 0 0 1;
1 15.004 4 475.2 475.2 0 0 14.29 13.2 0 0 4 0 0 0 0 0 1;
1 15.004 4 381.6 381.6 0 0 14.29 10.6 0 0 4 0 0 0 0 0 1;
1 15.004 4 3038.4 3038.4 0 0 14.29 84.4 0 0 4 0 0 0 0 0 1;
1 15.004 4 3340.8 3340.8 0 0 14.29 92.8 0 0 4 0 0 0 0 0 1;
1 15.004 4 8330.4 8330.4 0 0 14.29 231.4 0 0 4 0 0 0 0 0 1;
1 15.004 4 11296.8 11296.8 0 0 14.29 313.8 0 0 4 0 0 0 0 0 1;
1 15.004 4 64.8 64.8 0 0 14.29 1.8 0 0 4 0 0 0 0 0 1;
1 15.004 4 79.2 79.2 0 0 14.29 2.2 0 0 4 0 0 0 0 0 1;
1 15.004 4 1404.0 1404.0 0 0 14.29 39.0 0 0 4 0 0 0 0 0 1;
1 15.004 4 388.8 388.8 0 0 14.29 10.8 0 0 4 0 0 0 0 0 1;
1 15.004 4 410.4 410.4 0 0 14.29 11.4 0 0 4 0 0 0 0 0 1;
1 15.004 4 18.6 18.6 1 1 14.29 3.1 0 0 5 0 0 0 0 0 1;
1 15.004 4 85.8 85.8 1 1 14.29 14.3 0 0 5 0 0 0 0 0 1;
1 15.004 4 40.8 40.8 1 1 14.29 6.8 0 0 5 0 0 0 0 0 1;
1 15.004 4 79.8 79.8 1 1 14.29 13.3 0 0 5 0 0 0 0 0 1;
1 15.004 4 142.8 142.8 1 1 14.29 23.8 0 0 5 0 0 0 0 0 1;
1 15.004 4 313.8 313.8 1 1 14.29 52.3 0 0 5 0 0 0 0 0 1;
1 15.004 4 33.0 33.0 1 1 14.29 5.5 0 0 5 0 0 0 0 0 1;
1 15.004 4 33.0 33.0 1 1 14.29 5.5 0 0 5 0 0 0 0 0 1;
1 15.004 4 210.6 210.6 1 1 14.29 35.1 0 0 5 0 0 0 0 0 1;
1 15.004 4 132.0 132.0 1 1 14.29 22.0 0 0 5 0 0 0 0 0 1;
1 15.004 4 82.8 82.8 1 1 14.29 13.8 0 0 5 0 0 0 0 0 1;
1 15.004 4 79.8 79.8 1 1 14.29 13.3 0 0 5 0 0 0 0 0 1;
1 15.004 4 78.6 78.6 1 1 14.29 13.1 0 0 5 0 0 0 0 0 1;
1 15.004 4 69.0 69.0 1 1 14.29 11.5 0 0 5 0 0 0 0 0 1;
1 15.004 4 66.0 66.0 1 1 14.29 11.0 0 0 5 0 0 0 0 0 1;
1 15.004 4 66.0 66.0 1 1 14.29 11.0 0 0 5 0 0 0 0 0 1;
1 15.004 4 58.8 58.8 1 1 14.29 9.8 0 0 5 0 0 0 0 0 1;
1 15.004 4 310.8 310.8 1 1 14.29 51.8 0 0 5 0 0 0 0 0 1;
1 15.004 4 179.4 179.4 1 1 14.29 29.9 0 0 5 0 0 0 0 0 1;
1 15.004 4 178.8 178.8 1 1 14.29 29.8 0 0 5 0 0 0 0 0 1;
1 15.004 4 104.4 104.4 1 1 14.29 17.4 0 0 5 0 0 0 0 0 1;
1 15.004 4 102.0 102.0 1 1 14.29 17.0 0 0 5 0 0 0 0 0 1;
1 15.004 4 99.0 99.0 1 1 14.29 16.5 0 0 5 0 0 0 0 0 1;
1 15.004 4 91.8 91.8 1 1 14.29 15.3 0 0 5 0 0 0 0 0 1;
1 15.004 4 88.2 88.2 1 1 14.29 14.7 0 0 5 0 0 0 0 0 1;
1 15.004 4 85.2 85.2 1 1 14.29 14.2 0 0 5 0 0 0 0 0 1;
1 15.004 4 70.2 70.2 1 1 14.29 11.7 0 0 5 0 0 0 0 0 1;
1 15.004 4 69.0 69.0 1 1 14.29 11.5 0 0 5 0 0 0 0 0 1;
1 15.004 4 69.0 69.0 1 1 14.29 11.5 0 0 5 0 0 0 0 0 1;
1 15.004 4 55.2 55.2 1 1 14.29 9.2 0 0 5 0 0 0 0 0 1;
1 15.004 4 30.0 30.0 1 1 14.29 5.0 0 0 5 0 0 0 0 0 1;
1 15.004 4 180.0 180.0 1 1 14.29 30.0 0 0 5 0 0 0 0 0 1;
1 15.004 4 260.4 260.4 1 1 14.29 43.4 0 0 5 0 0 0 0 0 1;
1 15.004 4 200.4 200.4 1 1 14.29 33.4 0 0 5 0 0 0 0 0 1;
1 15.004 4 299.4 299.4 1 1 14.29 49.9 0 0 5 0 0 0 0 0 1;
1 15.004 4 299.4 299.4 1 1 14.29 49.9 0 0 5 0 0 0 0 0 1;
1 15.004 4 507.0 507.0 1 1 14.29 84.5 0 0 5 0 0 0 0 0 1;
1 15.004 4 282.0 282.0 1 1 14.29 47.0 0 0 5 0 0 0 0 0 1;
1 15.004 4 138.0 138.0 1 1 14.29 23.0 0 0 5 0 0 0 0 0 1;
1 15.004 4 115.2 115.2 1 1 14.29 19.2 0 0 5 0 0 0 0 0 1;
1 15.004 4 220.8 220.8 1 1 14.29 36.8 0 0 5 0 0 0 0 0 1;
1 15.004 4 147.6 147.6 1 1 14.29 24.6 0 0 5 0 0 0 0 0 1;
1 15.004 4 82.2 82.2 1 1 14.29 13.7 0 0 5 0 0 0 0 0 1;
1 15.004 4 42.6 42.6 1 1 14.29 7.1 0 0 5 0 0 0 0 0 1;
1 15.004 4 120 120 8 8 14.29 59.3 0 0 6 0 0 0 0 0 1;
1 0.03 0 0 0 0 0 0 0 0 0 7 0 0 0 0 0 1;
1 0.03 0 0 0 0 0 0 0 0 0 7 0 0 0 0 0 1;
1 0.03 0 0 0 0 0 0 0 0 0 7 0 0 0 0 0 1;
1 0.03 0 0 0 0 0 0 0 0 0 7 0 0 0 0 0 1;
1 0.03 0 0 0 0 0 0 0 0 0 7 0 0 0 0 0 1;
1 0.03 0 0 0 0 0 0 0 0 0 7 0 0 0 0 0 1;
1 0.03 0 0 0 0 0 0 0 0 0 7 0 0 0 0 0 1;
1 0.03 0 0 0 0 0 0 0 0 0 7 0 0 0 0 0 1;
1 0.03 0 0 0 0 0 0 0 0 0 7 0 0 0 0 0 1;
1 0.03 0 0 0 0 0 0 0 0 0 7 0 0 0 0 0 1;
1 0.03 0 0 0 0 0 0 0 0 0 7 0 0 0 0 0 1;
1 0.03 0 0 0 0 0 0 0 0 0 7 0 0 0 0 0 1;
1 0.03 0 0 0 0 0 0 0 0 0 7 0 0 0 0 0 1;
1 0.03 0 0 0 0 0 0 0 0 0 7 0 0 0 0 0 1;
1 0.03 0 0 0 0 0 0 0 0 0 7 0 0 0 0 0 1;
1 0.03 0 0 0 0 0 0 0 0 0 7 0 0 0 0 0 1;
1 0.03 0 0 0 0 0 0 0 0 0 7 0 0 0 0 0 1;
1 0.03 0 0 0 0 0 0 0 0 0 7 0 0 0 0 0 1;
1 0.03 0 0 0 0 0 0 0 0 0 7 0 0 0 0 0 1;
1 0.03 0 0 0 0 0 0 0 0 0 7 0 0 0 0 0 1;
1 0.03 0 0 0 0 0 0 0 0 0 7 0 0 0 0 0 1;
1 0.03 0 0 0 0 0 0 0 0 0 7 0 0 0 0 0 1;
1 0.03 0 0 0 0 0 0 0 0 0 7 0 0 0 0 0 1;
1 0.03 0 0 0 0 0 0 0 0 0 7 0 0 0 0 0 1;
1 0.03 0 0 0 0 0 0 0 0 0 7 0 0 0 0 0 1;
1 0.03 0 0 0 0 0 0 0 0 0 7 0 0 0 0 0 1;
1 0.03 0 0 0 0 0 0 0 0 0 7 0 0 0 0 0 1;
1 0.03 0 0 0 0 0 0 0 0 0 7 0 0 0 0 0 1;
1 0.03 0 0 0 0 0 0 0 0 0 7 0 0 0 0 0 1;
1 0.03 0 0 0 0 0 0 0 0 0 7 0 0 0 0 0 1;
1 0.03 0 0 0 0 0 0 0 0 0 7 0 0 0 0 0 1;
1 0.03 0 0 0 0 0 0 0 0 0 7 0 0 0 0 0 1;
1 0.03 0 0 0 0 0 0 0 0 0 7 0 0 0 0 0 1;
1 0.03 0 0 0 0 0 0 0 0 0 7 0 0 0 0 0 1;
1 0.03 0 0 0 0 0 0 0 0 0 7 0 0 0 0 0 1;
1 0.03 0 0 0 0 0 0 0 0 0 7 0 0 0 0 0 1;
1 0.03 0 0 0 0 0 0 0 0 0 7 0 0 0 0 0 1;
1 0.03 0 0 0 0 0 0 0 0 0 7 0 0 0 0 0 1;
1 0.03 0 0 0 0 0 0 0 0 0 7 0 0 0 0 0 1;
1 0.03 0 0 0 0 0 0 0 0 0 7 0 0 0 0 0 1;
1 0.03 0 0 0 0 0 0 0 0 0 7 0 0 0 0 0 1;
1 0.03 0 0 0 0 0 0 0 0 0 7 0 0 0 0 0 1;
1 0.03 0 0 0 0 0 0 0 0 0 7 0 0 0 0 0 1;
1 0.03 0 0 0 0 0 0 0 0 0 7 0 0 0 0 0 1;
1 0.03 0 0 0 0 0 0 0 0 0 7 0 0 0 0 0 1;
1 0.03 0 0 0 0 0 0 0 0 0 7 0 0 0 0 0 1;
1 0.03 0 0 0 0 0 0 0 0 0 7 0 0 0 0 0 1;
1 0.03 0 0 0 0 0 0 0 0 0 7 0 0 0 0 0 1;
1 0.03 0 0 0 0 0 0 0 0 0 7 0 0 0 0 0 1;
1 0.03 0 0 0 0 0 0 0 0 0 7 0 0 0 0 0 1;
1 0.03 0 0 0 0 0 0 0 0 0 7 0 0 0 0 0 1;
1 0.03 0 0 0 0 0 0 0 0 0 7 0 0 0 0 0 1;
1 0.03 0 0 0 0 0 0 0 0 0 7 0 0 0 0 0 1;
1 0.03 0 0 0 0 0 0 0 0 0 7 0 0 0 0 0 1;
1 0.03 0 0 0 0 0 0 0 0 0 7 0 0 0 0 0 1;
1 0.03 0 0 0 0 0 0 0 0 0 7 0 0 0 0 0 1;
1 0.03 0 0 0 0 0 0 0 0 0 7 0 0 0 0 0 1;
1 0.03 0 0 0 0 0 0 0 0 0 7 0 0 0 0 0 1;
1 0.03 0 0 0 0 0 0 0 0 0 7 0 0 0 0 0 1;
1 0.03 0 0 0 0 0 0 0 0 0 7 0 0 0 0 0 1;
1 0.03 0 0 0 0 0 0 0 0 0 7 0 0 0 0 0 1;
1 0.03 0 0 0 0 0 0 0 0 0 7 0 0 0 0 0 1;
1 0.03 0 0 0 0 0 0 0 0 0 7 0 0 0 0 0 1;
1 0.03 0 0 0 0 0 0 0 0 0 7 0 0 0 0 0 1;
1 0.03 0 0 0 0 0 0 0 0 0 7 0 0 0 0 0 1;
1 0.03 0 0 0 0 0 0 0 0 0 7 0 0 0 0 0 1;
1 0.03 0 0 0 0 0 0 0 0 0 7 0 0 0 0 0 1;
1 0.03 0 0 0 0 0 0 0 0 0 7 0 0 0 0 0 1;
1 0.03 0 0 0 0 0 0 0 0 0 7 0 0 0 0 0 1;
1 0.03 0 0 0 0 0 0 0 0 0 7 0 0 0 0 0 1;
1 0.03 0 0 0 0 0 0 0 0 0 7 0 0 0 0 0 1;
1 0.03 0 0 0 0 0 0 0 0 0 7 0 0 0 0 0 1;
...
 
1 0.03 0 0 0 0 0 0 0 0 0 8 0 0 0 0 0 1;
1 0.03 0 0 0 0 0 0 0 0 0 8 0 0 0 0 0 1;
1 0.03 0 0 0 0 0 0 0 0 0 8 0 0 0 0 0 1;
1 0.03 0 0 0 0 0 0 0 0 0 8 0 0 0 0 0 1;
1 0.03 0 0 0 0 0 0 0 0 0 8 0 0 0 0 0 1;
1 0.03 0 0 0 0 0 0 0 0 0 8 0 0 0 0 0 1;
1 0.03 0 0 0 0 0 0 0 0 0 8 0 0 0 0 0 1;
1 0.03 0 0 0 0 0 0 0 0 0 8 0 0 0 0 0 1;
1 0.03 0 0 0 0 0 0 0 0 0 8 0 0 0 0 0 1;
1 0.03 0 0 0 0 0 0 0 0 0 8 0 0 0 0 0 1;
1 0.03 0 0 0 0 0 0 0 0 0 8 0 0 0 0 0 1;
1 0.03 0 0 0 0 0 0 0 0 0 8 0 0 0 0 0 1;
1 0.03 0 0 0 0 0 0 0 0 0 8 0 0 0 0 0 1;
1 0.03 0 0 0 0 0 0 0 0 0 8 0 0 0 0 0 1;
1 0.03 0 0 0 0 0 0 0 0 0 8 0 0 0 0 0 1;
1 0.03 0 0 0 0 0 0 0 0 0 8 0 0 0 0 0 1;
1 0.03 0 0 0 0 0 0 0 0 0 8 0 0 0 0 0 1;
1 0.03 0 0 0 0 0 0 0 0 0 8 0 0 0 0 0 1;
1 0.03 0 0 0 0 0 0 0 0 0 8 0 0 0 0 0 1;
1 0.03 0 0 0 0 0 0 0 0 0 8 0 0 0 0 0 1;
1 0.03 0 0 0 0 0 0 0 0 0 8 0 0 0 0 0 1;
1 0.03 0 0 0 0 0 0 0 0 0 8 0 0 0 0 0 1;
1 0.03 0 0 0 0 0 0 0 0 0 8 0 0 0 0 0 1;
1 0.03 0 0 0 0 0 0 0 0 0 8 0 0 0 0 0 1;
1 0.03 0 0 0 0 0 0 0 0 0 8 0 0 0 0 0 1;
1 0.03 0 0 0 0 0 0 0 0 0 8 0 0 0 0 0 1;
1 0.03 0 0 0 0 0 0 0 0 0 8 0 0 0 0 0 1;
1 0.03 0 0 0 0 0 0 0 0 0 8 0 0 0 0 0 1;
1 0.03 0 0 0 0 0 0 0 0 0 8 0 0 0 0 0 1;
1 0.03 0 0 0 0 0 0 0 0 0 8 0 0 0 0 0 1;
1 0.03 0 0 0 0 0 0 0 0 0 8 0 0 0 0 0 1;
1 0.03 0 0 0 0 0 0 0 0 0 8 0 0 0 0 0 1;
1 0.03 0 0 0 0 0 0 0 0 0 8 0 0 0 0 0 1;
1 0.03 0 0 0 0 0 0 0 0 0 8 0 0 0 0 0 1;
1 0.03 0 0 0 0 0 0 0 0 0 8 0 0 0 0 0 1;
1 0.03 0 0 0 0 0 0 0 0 0 8 0 0 0 0 0 1;
1 0.03 0 0 0 0 0 0 0 0 0 8 0 0 0 0 0 1;
1 0.03 0 0 0 0 0 0 0 0 0 8 0 0 0 0 0 1;
1 0.03 0 0 0 0 0 0 0 0 0 8 0 0 0 0 0 1;
1 0.03 0 0 0 0 0 0 0 0 0 8 0 0 0 0 0 1;
1 0.03 0 0 0 0 0 0 0 0 0 8 0 0 0 0 0 1;
1 0.03 0 0 0 0 0 0 0 0 0 8 0 0 0 0 0 1;
1 0.03 0 0 0 0 0 0 0 0 0 8 0 0 0 0 0 1;
1 0.03 0 0 0 0 0 0 0 0 0 8 0 0 0 0 0 1;
1 0.03 0 0 0 0 0 0 0 0 0 8 0 0 0 0 0 1;
1 0.03 0 0 0 0 0 0 0 0 0 8 0 0 0 0 0 1;
1 0.03 0 0 0 0 0 0 0 0 0 8 0 0 0 0 0 1;
1 0.03 0 0 0 0 0 0 0 0 0 8 0 0 0 0 0 1;
1 0.03 0 0 0 0 0 0 0 0 0 8 0 0 0 0 0 1;
1 0.03 0 0 0 0 0 0 0 0 0 8 0 0 0 0 0 1;
1 0.03 0 0 0 0 0 0 0 0 0 8 0 0 0 0 0 1;
1 0.03 0 0 0 0 0 0 0 0 0 8 0 0 0 0 0 1;
1 0.03 0 0 0 0 0 0 0 0 0 8 0 0 0 0 0 1;
1 0.03 0 0 0 0 0 0 0 0 0 8 0 0 0 0 0 1;
1 0.03 0 0 0 0 0 0 0 0 0 8 0 0 0 0 0 1;
1 0.03 0 0 0 0 0 0 0 0 0 8 0 0 0 0 0 1;
1 0.03 0 0 0 0 0 0 0 0 0 8 0 0 0 0 0 1;
1 0.03 0 0 0 0 0 0 0 0 0 8 0 0 0 0 0 1;
1 0.03 0 0 0 0 0 0 0 0 0 8 0 0 0 0 0 1;
1 0.03 0 0 0 0 0 0 0 0 0 8 0 0 0 0 0 1;
1 0.03 0 0 0 0 0 0 0 0 0 8 0 0 0 0 0 1;
1 0.03 0 0 0 0 0 0 0 0 0 8 0 0 0 0 0 1;
1 0.03 0 0 0 0 0 0 0 0 0 8 0 0 0 0 0 1;
1 0.03 0 0 0 0 0 0 0 0 0 8 0 0 0 0 0 1;
1 0.03 0 0 0 0 0 0 0 0 0 8 0 0 0 0 0 1;
1 0.03 0 0 0 0 0 0 0 0 0 8 0 0 0 0 0 1;
1 0.03 0 0 0 0 0 0 0 0 0 8 0 0 0 0 0 1;
1 0.03 0 0 0 0 0 0 0 0 0 8 0 0 0 0 0 1;
1 0.03 0 0 0 0 0 0 0 0 0 8 0 0 0 0 0 1;
1 0.03 0 0 0 0 0 0 0 0 0 8 0 0 0 0 0 1;
1 0.03 0 0 0 0 0 0 0 0 0 8 0 0 0 0 0 1;
1 0.03 0 0 0 0 0 0 0 0 0 8 0 0 0 0 0 1;
1 0.03 0 0 0 0 0 0 0 0 0 8 0 0 0 0 0 1;
1 0.03 0 0 0 0 0 0 0 0 0 8 0 0 0 0 0 1;

2 15.004 4 1200 1200 4 4 14.29 50 0 0 4 0 0 0 0 0 2;
2 15.004 4 1200 1200 4 4 14.29 50 0 0 4 0 0 0 0 0 2;
2 15.004 4 1200 1200 4 4 14.29 50 0 0 4 0 0 0 0 0 2;
2 15.004 4 1200 1200 4 4 14.29 50 0 0 4 0 0 0 0 0 2;
2 15.004 4 1200 1200 4 4 14.29 50 0 0 4 0 0 0 0 0 2;
2 15.004 4 1200 1200 4 4 14.29 50 0 0 4 0 0 0 0 0 2;
2 15.004 4 1200 1200 4 4 14.29 50 0 0 4 0 0 0 0 0 2;
2 15.004 4 1200 1200 4 4 14.29 50 0 0 4 0 0 0 0 0 2;
2 15.004 4 1200 1200 4 4 14.29 50 0 0 4 0 0 0 0 0 2;
2 15.004 4 1200 1200 4 4 14.29 50 0 0 4 0 0 0 0 0 2;
2 15.004 4 1200 1200 4 4 14.29 50 0 0 4 0 0 0 0 0 2;
2 15.004 4 1200 1200 4 4 14.29 50 0 0 4 0 0 0 0 0 2;
2 15.004 4 1200 1200 4 4 14.29 50 0 0 4 0 0 0 0 0 2;
2 15.004 4 1200 1200 4 4 14.29 50 0 0 4 0 0 0 0 0 2;
2 15.004 4 1200 1200 4 4 14.29 50 0 0 4 0 0 0 0 0 2;
2 15.004 4 1200 1200 4 4 14.29 50 0 0 4 0 0 0 0 0 2;
2 15.004 4 1200 1200 4 4 14.29 50 0 0 4 0 0 0 0 0 2;
2 15.004 4 1200 1200 4 4 14.29 50 0 0 4 0 0 0 0 0 2;
2 15.004 4 1200 1200 4 4 14.29 50 0 0 4 0 0 0 0 0 2;
2 15.004 4 1200 1200 4 4 14.29 50 0 0 4 0 0 0 0 0 2;
2 15.004 4 1200 1200 4 4 14.29 50 0 0 4 0 0 0 0 0 2;
2 15.004 4 1200 1200 4 4 14.29 50 0 0 4 0 0 0 0 0 2;
2 15.004 4 1200 1200 4 4 14.29 50 0 0 4 0 0 0 0 0 2;
2 15.004 4 1200 1200 4 4 14.29 50 0 0 4 0 0 0 0 0 2;
2 15.004 4 1200 1200 4 4 14.29 50 0 0 4 0 0 0 0 0 2;
2 15.004 4 1200 1200 4 4 14.29 50 0 0 4 0 0 0 0 0 2;
2 15.004 4 1200 1200 4 4 14.29 50 0 0 4 0 0 0 0 0 2;
2 15.004 4 1200 1200 4 4 14.29 50 0 0 4 0 0 0 0 0 2;
2 15.004 4 1200 1200 4 4 14.29 50 0 0 4 0 0 0 0 0 2;
2 15.004 4 1200 1200 4 4 14.29 50 0 0 4 0 0 0 0 0 2;
2 15.004 4 1200 1200 4 4 14.29 50 0 0 4 0 0 0 0 0 2;
2 15.004 4 1200 1200 4 4 14.29 50 0 0 4 0 0 0 0 0 2;
2 15.004 4 1200 1200 4 4 14.29 50 0 0 4 0 0 0 0 0 2;
2 15.004 4 1200 1200 4 4 14.29 50 0 0 4 0 0 0 0 0 2;
2 15.004 4 1200 1200 4 4 14.29 50 0 0 4 0 0 0 0 0 2;
2 15.004 4 1200 1200 4 4 14.29 50 0 0 4 0 0 0 0 0 2;
2 15.004 4 1200 1200 4 4 14.29 50 0 0 4 0 0 0 0 0 2;
2 15.004 4 1200 1200 4 4 14.29 50 0 0 4 0 0 0 0 0 2;
2 15.004 4 1200 1200 4 4 14.29 50 0 0 4 0 0 0 0 0 2;
2 15.004 4 1200 1200 4 4 14.29 50 0 0 4 0 0 0 0 0 2;
2 15.004 4 1200 1200 4 4 14.29 50 0 0 4 0 0 0 0 0 2;
2 15.004 4 1200 1200 4 4 14.29 50 0 0 4 0 0 0 0 0 2;
2 15.004 4 1200 1200 4 4 14.29 50 0 0 4 0 0 0 0 0 2;
2 15.004 4 1200 1200 4 4 14.29 50 0 0 4 0 0 0 0 0 2;
2 15.004 4 1200 1200 4 4 14.29 50 0 0 4 0 0 0 0 0 2;
2 15.004 4 1200 1200 4 4 14.29 50 0 0 4 0 0 0 0 0 2;
2 15.004 4 1200 1200 4 4 14.29 50 0 0 4 0 0 0 0 0 2;
2 15.004 4 1200 1200 4 4 14.29 50 0 0 4 0 0 0 0 0 2;
2 15.004 4 1200 1200 4 4 14.29 50 0 0 4 0 0 0 0 0 2;
2 15.004 4 1200 1200 4 4 14.29 50 0 0 4 0 0 0 0 0 2;
2 15.004 4 1200 1200 4 4 14.29 50 0 0 4 0 0 0 0 0 2;
2 15.004 4 1200 1200 4 4 14.29 50 0 0 4 0 0 0 0 0 2;
2 15.004 4 1200 1200 4 4 14.29 50 0 0 4 0 0 0 0 0 2;
2 15.004 4 1200 1200 4 4 14.29 50 0 0 4 0 0 0 0 0 2;
2 15.004 4 1200 1200 4 4 14.29 50 0 0 4 0 0 0 0 0 2;
2 15.004 4 1200 1200 4 4 14.29 50 0 0 4 0 0 0 0 0 2;
2 15.004 4 1200 1200 4 4 14.29 50 0 0 4 0 0 0 0 0 2;
2 15.004 4 1200 1200 4 4 14.29 50 0 0 4 0 0 0 0 0 2;
2 15.004 4 1200 1200 4 4 14.29 50 0 0 4 0 0 0 0 0 2;
2 15.004 4 1200 1200 4 4 14.29 50 0 0 4 0 0 0 0 0 2;
2 15.004 4 1200 1200 4 4 14.29 50 0 0 4 0 0 0 0 0 2;
2 15.004 4 1200 1200 4 4 14.29 50 0 0 4 0 0 0 0 0 2;
2 15.004 4 1200 1200 4 4 14.29 50 0 0 4 0 0 0 0 0 2;
2 15.004 4 1200 1200 4 4 14.29 50 0 0 4 0 0 0 0 0 2;
2 15.004 4 1200 1200 4 4 14.29 50 0 0 4 0 0 0 0 0 2;
2 15.004 4 1200 1200 4 4 14.29 50 0 0 4 0 0 0 0 0 2;
2 15.004 4 1200 1200 4 4 14.29 50 0 0 4 0 0 0 0 0 2;
2 15.004 4 1200 1200 4 4 14.29 50 0 0 4 0 0 0 0 0 2;
2 15.004 4 1200 1200 4 4 14.29 50 0 0 4 0 0 0 0 0 2;
2 15.004 4 1200 1200 4 4 14.29 50 0 0 4 0 0 0 0 0 2;
2 15.004 4 1200 1200 4 4 14.29 50 0 0 4 0 0 0 0 0 2;
2 15.004 4 1200 1200 4 4 14.29 50 0 0 4 0 0 0 0 0 2;
2 15.004 4 1200 1200 4 4 14.29 50 0 0 4 0 0 0 0 0 2;
2 15.004 4 1200 1200 4 4 14.29 50 0 0 4 0 0 0 0 0 2;
2 15.004 4 1200 1200 4 4 14.29 50 0 0 4 0 0 0 0 0 2;
2 15.004 4 1200 1200 4 4 14.29 50 0 0 4 0 0 0 0 0 2;
2 15.004 4 1200 1200 4 4 14.29 50 0 0 4 0 0 0 0 0 2;
2 15.004 4 1200 1200 4 4 14.29 50 0 0 4 0 0 0 0 0 2;
2 15.004 4 1200 1200 4 4 14.29 50 0 0 4 0 0 0 0 0 2;
2 15.004 4 1200 1200 4 4 14.29 50 0 0 4 0 0 0 0 0 2;
2 15.004 4 1200 1200 4 4 14.29 50 0 0 4 0 0 0 0 0 2;
2 15.004 4 1200 1200 4 4 14.29 50 0 0 4 0 0 0 0 0 2;
2 15.004 4 1200 1200 4 4 14.29 50 0 0 4 0 0 0 0 0 2;
2 15.004 4 1200 1200 4 4 14.29 50 0 0 4 0 0 0 0 0 2;
2 15.004 4 1200 1200 4 4 14.29 50 0 0 4 0 0 0 0 0 2;
2 15.004 4 1200 1200 4 4 14.29 50 0 0 4 0 0 0 0 0 2;
2 15.004 4 1200 1200 4 4 14.29 50 0 0 4 0 0 0 0 0 2;
2 15.004 4 1200 1200 4 4 14.29 50 0 0 4 0 0 0 0 0 2;
2 15.004 4 1200 1200 4 4 14.29 50 0 0 4 0 0 0 0 0 2;
2 15.004 4 1200 1200 4 4 14.29 50 0 0 4 0 0 0 0 0 2;
...